simulators/rz/research/evidence/research-20260925/ercot-live-20260925/n1-np4-160/SP_List_EB_Mapping/Settlement_Points_09022026_133322.csv
ELECTRICAL_BUS,NODE_NAME,PSSE_BUS_NAME,VOLTAGE_LEVEL,SUBSTATION,SETTLEMENT_LOAD_ZONE,RESOURCE_NODE,HUB_BUS_NAME,HUB,PSSE_BUS_NUMBER
0001,0001,L_BUCKRA8_1Y,138,BUBORA,LZ_SOUTH,,,,7103
0001DUPV1_,0001,DUP_DUPV1_G1,13.8,DUPV1,LZ_SOUTH,,,,110681
0001HWFG1,0001,HWF_HWFG1,34.5,HWF,LZ_WEST,,,,150611
0001VICTOR,0001,VIC_VICTORG6,18,VICTORIA,LZ_SOUTH,,,,110882
0001_C,0180,TRI_CNTY,138,F5,LZ_SOUTH,,,,5445
0001_EB,0001,DOW_DOW_ST95,14.4,DOWGEN,LZ_HOUSTON,,,,110147
0001_LO,0001,LOOKOUT,138,LOOKOUT,LZ_NORTH,,,,828
0002,0002,PRSPERO2_5,345,PRSPERO2,LZ_WEST,,,,135183
0002_EB,0002,DOWG_DOW_G81,14.4,DOWGEN,LZ_HOUSTON,,,,110135
0003,0003,SHELBY2,69,SHELBY,LZ_NORTH,,,,961
0003EB,0003,MORRIS_D2_8,138,MRSDO,LZ_NORTH,,,,1864
0003_EB,0003,DOWG_DOW_G82,14.4,DOWGEN,LZ_HOUSTON,,,,110137
0004,0004,NCO_G1,34.5,NCO,LZ_HOUSTON,,,,120321
0004EB,0004,CRANENORTH_9,69,CNPOI,LZ_WEST,,,,1197
0004_1,0004,ENDPARKS_G1,34.5,ENDPARKS,LZ_WEST,,,,183511
0004_EB,0004,DOWG_DOW_G83,14.4,DOWGEN,LZ_HOUSTON,,,,110139
0005,0005,TNSANDRSON0,69,SANDRSON,LZ_WEST,,,,38400
0006,0006,TNDOWNIE__0,69,TNDOWNIE,LZ_WEST,,,,38397
0006B,0006,CRUCIS,138,CRUCIS,LZ_NORTH,,,,33474
0006EB,0006,MAYFLDS_8,138,MAYFD,LZ_NORTH,,,,1914
0006_PV1,0006,ULYS_SLR_S1,34.5,ULYS_SLR,LZ_WEST,,,,183681
0007,0007,CHISMGRD_G1,34.5,CHISMGRD,LZ_NORTH,,,,151361
0007_EB,0008,DOWG_DOW_G61,14.4,DOWGEN,LZ_HOUSTON,,,,110114
0008,0008,LOOKOUT,138,LOOKOUT,LZ_NORTH,,,,828
0008EB,0008,RED_BLUFF1_8,138,REDBF,LZ_WEST,,,,1085
0008_BUS1,0008,SOMERSET,138,E3,LZ_SOUTH,,,,5390
0009,0009,LOOKOUT,138,LOOKOUT,LZ_NORTH,,,,828
0009EB,0009,TARZANSW_8,138,TZPOI,LZ_WEST,,,,1175
0009_EBUS,0009,DOWG_DOW_G62,14.4,DOWGEN,LZ_HOUSTON,,,,110115
0010,0010,TNDOWNIE__0,69,TNDOWNIE,LZ_WEST,,,,38397
0010EB,0010,LBELTON_P_8,138,LKBLT,LZ_NORTH,,,,3624
0010_EB,0010,DOWG_DOW_G63,14.4,DOWGEN,LZ_HOUSTON,,,,110116
0011,0011,ANG_SLR_B1,34.5,ANG_SLR,LZ_WEST,,,,183785
0011EB,0011,TARZANSW_8,138,TZPOI,LZ_WEST,,,,1175
0011_EB,0011,DOW_DOW_ST64,14.4,DOWGEN,LZ_HOUSTON,,,,110117
0012,0012,LOOKOUT,138,LOOKOUT,LZ_NORTH,,,,828
0012_EB,0012,DOW_DOW_ST65,14.4,DOWGEN,LZ_HOUSTON,,,,110125
0013,0014,MADERO_G2,34.5,MADERO,LZ_SOUTH,,,,162962
0013EB,0013,TARZANSW_8,138,TZPOI,LZ_WEST,,,,1175
0013_EB,0013,DOWG_DOW_G66,14.4,DOWGEN,LZ_HOUSTON,,,,110124
0014,0014,NEVAD_RC1,138,NEVAD_RC,LZ_NORTH,,,,6891
0014_EB,0014,DOWG_DOW_G67,14.4,DOWGEN,LZ_HOUSTON,DOW_G67,,,110123
0015,0015,SHELBY2,69,SHELBY,LZ_NORTH,,,,961
0015_EB,0015,LNCRK_CB1,34.5,LNCRK,LZ_WEST,,,,150213
0016,0016,CAMPBELLSW,138,CAMPBELL,LZ_NORTH,,,,838
0016_EB,0016,DOW_61_2_64,14.4,DOWGEN,LZ_HOUSTON,DOW_61_2_63,,,110118
0019,0019,DANISH_S3,34.5,DAN,LZ_SOUTH,,,,111633
0020,0020,DANISH_S2,34.5,DAN,LZ_SOUTH,,,,111632
0022,0022,HHOLLO_WND_1,34.5,HHOLLOW3,LZ_WEST,,,,180460
0023,0023,SHELBY2,69,SHELBY,LZ_NORTH,,,,961
0023_EB,0023,KING__86T2_8,138,KG,LZ_HOUSTON,,,,40912
0024,0024,LOOKOUT,138,LOOKOUT,LZ_NORTH,,,,828
0025,0025,LOOKOUT,138,LOOKOUT,LZ_NORTH,,,,828
0026_EB,0026,KING__86TP_8,138,KG,LZ_HOUSTON,,,,48182
0032,0032,LOOKOUT,138,LOOKOUT,LZ_NORTH,,,,828
0033,0033,SHELBY2,69,SHELBY,LZ_NORTH,,,,961
0033_LO,0033,LOOKOUT,138,LOOKOUT,LZ_NORTH,,,,828
0034,0034,LOOKOUT,138,LOOKOUT,LZ_NORTH,,,,828
0035,0035,LOOKOUT,138,LOOKOUT,LZ_NORTH,,,,828
0040,0040,L_HORNSB5_1Y,345,HORNSB,LZ_SOUTH,,,,7047
0043,CN2,ROMANJUAREZ,138,RMNJUARZ,LZ_NORTH,,,,629
0047,0047,ROSELAND_B1,34.5,ROSELAND,LZ_NORTH,,,,152139
01,BB1,IOWAPARK_9,69,IOWPK,LZ_WEST,,,,1518
0100_LD1,0100,MOZART_WIND1,34.5,MOZART,LZ_WEST,,,,140331
0101_EB,0101,DOW_DOW_GT96,18,DOWGEN,LZ_HOUSTON,,,,110146
010EB,0010,RED_BLUFF1_8,138,REDBF,LZ_WEST,,,,1085
0110_EB,0110,DOW_DOW_GT96,18,DOWGEN,LZ_HOUSTON,,,,110146
0117_EB,0117,DOW_A2_1,14.4,DOW,LZ_HOUSTON,,,,110156
014,014,NEVAD_RC2,138,NEVAD_RC,LZ_NORTH,,,,6892
0180,0180,COMBINRC1,138,COMBINRC,LZ_NORTH,,,,6904
01J5SL_LD_,01J5,SL_1,34.5,SL,LZ_HOUSTON,,,,110945
0200_EB,0200,TALLY_RD,138,W1,LZ_SOUTH,,,,5422
0201,201,L_BIGHIL5_1Y,345,BIGHIL,LZ_WEST,,,,76003
0202,202,L_BIGHIL5_1Y,345,BIGHIL,LZ_WEST,,,,76003
0202_EB,0202,TALLY_RD,138,W1,LZ_SOUTH,,,,5422
0203,203,L_BIGHIL5_1Y,345,BIGHIL,LZ_WEST,,,,76003
0204,204,L_BIGHIL5_1Y,345,BIGHIL,LZ_WEST,,,,76003
020_EB,020,DOWGEN_12_8,138,DOWGEN,LZ_HOUSTON,,,,110143
02J7SL_LD_,02J7,SL_3,34.5,SL,LZ_HOUSTON,,,,110947
0300,0300,SHELBY1,138,SHELBY,LZ_NORTH,,,,960
0300_EB,0300,TALLY_RD,138,W1,LZ_SOUTH,,,,5422
0301,0301,L_MILTON8_1Y,138,MILTON,LZ_SOUTH,,,,78583
0302_EB,0302,TALLY_RD,138,W1,LZ_SOUTH,,,,5422
0400,0400,SHELBY1,138,SHELBY,LZ_NORTH,,,,960
0451_EBB,0451,ST_HEDWG,138,L2,LZ_SOUTH,,,,5410
04KV,0004,L_CYPRCR8_1Y,138,CYPRCR,LZ_SOUTH,,,,7156
0501,0501,MERIDIAN,69,MERIDIAN,LZ_NORTH,,,,319
0502,0502,BLF_CRK7A,345,BLUF_CRK,LZ_WEST,,,,60040
0600_EB,060,LNCRK_CB2,34.5,LNCRK,LZ_WEST,,,,150216
0607,0706,HOOD8,138,HOD,LZ_NORTH,,,,363
06KV,0006,L_CYPRCR8_1Y,138,CYPRCR,LZ_SOUTH,,,,7156
0801EB,0801,HUTTOSS1_8,138,HUTTO,LZ_SOUTH,,,,3666
08_EB,08,DOW_A5_1,14.4,DOW,LZ_HOUSTON,,,,110152
0950,0950,SHELBY1,138,SHELBY,LZ_NORTH,,,,960
0BB2,7452,HUTCH1_8,138,HUTCH,LZ_NORTH,,,,2964
0BB3,7453,HUTCH1_8,138,HUTCH,LZ_NORTH,,,,2964
0T1,6814,L_MOULSO8_1Y,138,MOULSO,LZ_SOUTH,,,,7237
0T2,2995,L_FM237Y8_1Y,138,FM237Y,LZ_SOUTH,,,,78191
1,10,FORNYWRC,138,FRNYW_RC,LZ_NORTH,,,,6865
1000,1000,N_FORK_BT,34.5,NF_BRP,LZ_SOUTH,,,,170571
1027EB,1027,TONKAWAW_5,345,TKWSW,LZ_WEST,,,,11048
1064,1064,NASA___X06B8,138,NA,LZ_HOUSTON,,,,42970
10_EB,10,DOWG_DOW_G82,14.4,DOWGEN,LZ_HOUSTON,,,,110137
10_EBUS,10,CSEC_CSECG2,34.5,CSEC,LZ_WEST,,,,180652
11,S7M7,REFORZAR7A,345,REFORZAR,LZ_SOUTH,,,,80078
1101,1101,RT66_WIND1,34.5,ROUTE_66,LZ_WEST,,,,141151
1102,1102,RT66_WIND1,34.5,ROUTE_66,LZ_WEST,,,,141151
1103,1103,RT66_DVAR,34.5,ROUTE_66,LZ_WEST,,,,141154
1106,1106,RT66_CR,34.5,ROUTE_66,LZ_WEST,,,,141153
1111,1111,GAMBIT_S1,34.5,GAMBIT,LZ_HOUSTON,,,,111981
1121,1121,RT66_5,345,ROUTE_66,LZ_WEST,,,,141152
11384,CN1,BEACNHLL_9,69,BHILL,LZ_WEST,,,,11384
1150,1150,SHELBY1,138,SHELBY,LZ_NORTH,,,,960
11_EB,11,DOWG_DOW_G81,14.4,DOWGEN,LZ_HOUSTON,,,,110135
11_EBUS,11,SPLAIN2_5,345,SPLAIN2,LZ_WEST,,,,141402
120_EB,128,DOWGEN_3_8,138,DOWGEN,LZ_HOUSTON,,,,110128
13,G130,MIRASOLE_W1,34.5,MIRASOLE,LZ_SOUTH,,,,161701
1309_1,1309,L_CEDACA5_1Y,345,CEDACA,LZ_WEST,,,,76015
1314_EB,1314,ST_HEDWG,138,L2,LZ_SOUTH,,,,5410
134701,007,TYGTEII_S1,34.5,TAYGETE2,LZ_WEST,,,,134701
134701_2,008,TYGTEII_S1,34.5,TAYGETE2,LZ_WEST,,,,134701
134702,011,TYGTEII_S2,34.5,TAYGETE2,LZ_WEST,,,,134702
134702_2,012,TYGTEII_S2,34.5,TAYGETE2,LZ_WEST,,,,134702
134705,001,TYGTEII_8,138,TAYGETE2,LZ_WEST,,,,134705
1381,S519,SOLSTICE4A,138,SOLSTICE,LZ_WEST,,,,60385
1381_BUS2,1381,SOMERSET,138,E3,LZ_SOUTH,,,,5390
1382,S004,SOLSTICE4A,138,SOLSTICE,LZ_WEST,,,,60385
1382_EB,1382,CACTSFLT_SC1,13.8,CFLATS,LZ_WEST,,,,170446
1387EB,1387,WILLOWVAL_8,138,WLVSW,LZ_WEST,,,,1301
138A,138A,INTERM26TP_8,138,IR,LZ_HOUSTON,,,,48170
138A_RUS,138A,RUSSEL_X84B8,138,RUS,LZ_HOUSTON,,,,40125
138B,138B,INTERM05TP_8,138,IR,LZ_HOUSTON,,,,48169
138B_RUS,138B,RUSSEL_X84B8,138,RUS,LZ_HOUSTON,,,,40125
138KV,8301,L_SEGUIN8_1Y,138,SEGUIN,LZ_SOUTH,,,,7228
138KV_1,B131,YELWJCKT4A,138,YELWJCKT,LZ_WEST,,,,6364
138KV_1_THOM,B131,THOMASTN4A,138,THOMASTN,LZ_SOUTH,,,,8183
138KV_2,B132,YELWJCKT4A,138,YELWJCKT,LZ_WEST,,,,6364
138KV_2_THOM,B132,THOMASTN4A,138,THOMASTN,LZ_SOUTH,,,,8183
138_BUS1,B131,OLEANDER4A,138,OLEANDER,LZ_SOUTH,,,,80022
138_BUS2,B132,ALMC4A,138,ALMC,LZ_WEST,,,,6680
1397,1397,RDWELLS138,138,RDWELLS,LZ_NORTH,,,,930
1398,1398,RDWELLS138,138,RDWELLS,LZ_NORTH,,,,930
13_EB,13,DOWG_DOW_G61,14.4,DOWGEN,LZ_HOUSTON,,,,110114
1401,1401,RDWELLS138,138,RDWELLS,LZ_NORTH,,,,930
1404,1404,RDWELLS138,138,RDWELLS,LZ_NORTH,,,,930
1461,1461,RDWELLS138,138,RDWELLS,LZ_NORTH,,,,930
15_EB,15,DOWG_DOW_G62,14.4,DOWGEN,LZ_HOUSTON,,,,110115
16057_EB1,CN8,DUNE_8,138,DUNSW,LZ_WEST,,,,11260
16062_EB2,CN7,DUNE_8,138,DUNSW,LZ_WEST,,,,11260
16847_EB,6012,BLACKBIRD_8,138,BLBSW,LZ_WEST,,,,11284
17,E217,BLSMT_2_17,34.5,BLSUMMIT,LZ_WEST,,,,142512
17034_EB_1,1,WEBBER__WSP1,34.5,WEBBER_S,LZ_SOUTH,,,,170341
170581_1,001,SLCNHLS_BT1,34.5,SLCNHLS,LZ_SOUTH,,,,170581
170581_2,002,SLCNHLS_BT2,34.5,SLCNHLS,LZ_SOUTH,,,,170583
170582,010,SLCNHLS_8,138,SLCNHLS,LZ_SOUTH,,,,170582
17187_EB5,7011,REDLAKES_8,138,RLKSW,LZ_WEST,,,,11293
17567_EB1,CN3,WOODARD_5,345,WDDSW,LZ_NORTH,,,,11699
17572_EB1,CN6,WOODARD_5,345,WDDSW,LZ_NORTH,IMP_RN1,,,11699
17577_EB1,CN9,WOODARD_5,345,WDDSW,LZ_NORTH,,,,11699
17_EB,17,DOWG_DOW_G63,14.4,DOWGEN,LZ_HOUSTON,,,,110116
180001,0001,BUC_BUCHANG1,6.9,BUCHAN,LZ_SOUTH,,,,180001
1925_EB,CN45,TRINIDAD_8,138,TRSES,LZ_NORTH,,,,3127
19_EB,19,DOW_DOW_ST64,14.4,DOWGEN,LZ_HOUSTON,DOW_64,,,110117
1J12SL_LD_,1J12,SL_2,34.5,SL,LZ_HOUSTON,,,,110946
1_138KV,S776,RUSSEKST4A,138,RUSSEKST,LZ_WEST,,,,6517
1_EB,1,WHITFLAT2A,69,WHITFLAT,LZ_WEST,,,,6040
1_EBUS,1,CSEC_CSECB1,34.5,CSEC,LZ_WEST,,,,180654
1_EB_,1,DOW_DOW_ST95,14.4,DOWGEN,LZ_HOUSTON,,,,110147
1_RELD1,5,REROCK_UNIT1,34.5,REROCK,LZ_WEST,,,,132332
2,9,FORNYWRC,138,FRNYW_RC,LZ_NORTH,,,,6865
200,200,RIOCOLRADSB9,69,RIOCOL,LZ_SOUTH,,,,5563
2001,2001,L_ESPERA8_1Y,138,ESPERA,LZ_SOUTH,,,,7710
2001_EB,2001,ROSCOE2A,34.5,TKWSW1,LZ_WEST,,,,180981
2007,2007,L_ESPERA8_1Y,138,ESPERA,LZ_SOUTH,,,,7710
201_1,201,L_BAKERS5_1Y,345,BAKESW,LZ_WEST,,,,76002
202,0202,CAPRIDGE_CR2,34.5,CAPRIDGE,LZ_WEST,,,,180753
202_2,202,L_BAKERS5_1Y,345,BAKESW,LZ_WEST,,,,76002
203,203,CAPRIDGE_CR2,34.5,CAPRIDGE,LZ_WEST,,,,180753
204,204,RIOCOLRADSB9,69,RIOCOL,LZ_SOUTH,,,,5563
2064,2064,NASA___X06B8,138,NA,LZ_HOUSTON,,,,42970
20MB,MBL1,ORANGEGRVSW8,138,ORNGROV,LZ_SOUTH,,,,5660
2151_EB,2151,L_PINNAC8_1Y,138,PINNAC,LZ_WEST,,,,7389
219HSL_LD1,221H,SL_6,12.4,SL,LZ_HOUSTON,,,,110950
22,S7K4,REFORZAR7A,345,REFORZAR,LZ_SOUTH,,,,80078
2222,AM88,SOUTHMOSTSB8,138,SOUTHMOS,LZ_SOUTH,,,,5789
222HSL_LD_,222H,SL_7,12.4,SL,LZ_HOUSTON,,,,110951
22_EB,22,DOW_DOW_ST65,14.4,DOWGEN,LZ_HOUSTON,,,,110125
241,241,MOURSUNDSB8,138,MOURSUND,LZ_SOUTH,,,,5508
241T2821B,7027,L_MEDICI9_1Y,69,MEDINA1,LZ_SOUTH,,,,7430
248HSL_LD_,248H,SL_9_1,12.4,SL,LZ_HOUSTON,,,,110952
24_EB,24,DOWG_DOW_G66,14.4,DOWGEN,LZ_HOUSTON,,,,110124
2500_EB,2500,UCC_1_8,138,UCC_COGN,LZ_HOUSTON,,,,110723
251HSL_LD_,251H,SL_11,12.4,SL,LZ_HOUSTON,,,,110955
2641SL_LD_,2641,SL_9,12.4,SL,LZ_HOUSTON,,,,110953
265HSL_LD_,265H,SL_11,12.4,SL,LZ_HOUSTON,,,,110955
26_EB,26,DOWG_DOW_G67,14.4,DOWGEN,LZ_HOUSTON,,,,110123
2858,2858,NCARBIDE4B,138,NCARBIDE,LZ_SOUTH,,,,8190
293HSL_LD_,293H,SL_SL_G3,12.4,SL,LZ_HOUSTON,,,,110943
2959,2959,L_BRADSO9_1Y,69,BRADSO,LZ_SOUTH,,,,76378
2J10SL_LD_,2J10,SL_4,34.5,SL,LZ_HOUSTON,,,,110948
...
A0_BS2,0017,CHULIE,138,A0,LZ_SOUTH,,,,5090
A111,A006,PALMASSW8,138,PALMAS,LZ_SOUTH,,,,5760
A222,A005,PALMASSW8,138,PALMAS,LZ_SOUTH,,,,5760
A3_BS1,0040,NAVISTAR,138,A3,LZ_SOUTH,,,,5317
A3_LXFMR2,0130,NAVISTAR,138,A3,LZ_SOUTH,,,,5317
A4_BS1,1000,PEARSAL,138,A4,LZ_SOUTH,,,,5335
A4_BUS03,0012,PEARSAL,138,A4,LZ_SOUTH,,,,5335
A4_LXFMR1,0110,PEARSAL,138,A4,LZ_SOUTH,A4_DGR1_RN,,,5335
A5_BS1,1003,MAUERMAN,138,A5,LZ_SOUTH,,,,5297
A5_BS2,1203,MAUERMAN,138,A5,LZ_SOUTH,,,,5297
A5_LXFMR1,1220,MAUERMAN,138,A5,LZ_SOUTH,,,,5297
AB1,L538,HENDRICK4A,138,HENDRICK,LZ_WEST,,,,60387
ABBOTT1X,0499,ABBOTT1_9,69,ABBOT,LZ_NORTH,,,,3524
ABBYBEND,0005,ABBYBEND,138,ABBYBEND,LZ_NORTH,,,,350
ABCR_L_A,4196,CANYONRO4A,138,CANYONRO,LZ_WEST,,,,6293
ABD1_L_A,4205,DYESS1AB2A,69,DYESS1AB,LZ_WEST,,,,6269
ABD2_L_A,4201,DYESS2AB2A,69,DYESS2AB,LZ_WEST,,,,6265
ABD3_L_A,4210,DYESS3AB2A,69,DYESS3AB,LZ_WEST,,,,6274
ABEA_138BUS1,B131,ABEAST4B,138,ABEAST,LZ_WEST,,,,60793
ABEA_138BUS2,B132,ABEAST4A,138,ABEAST,LZ_WEST,,,,6275
ABEA_L_A,LD01,ABEAST4A,138,ABEAST,LZ_WEST,,,,6275
ABEA_V_A,S408,ABEAST4A,138,ABEAST,LZ_WEST,,,,6275
ABEA_V_B,9BB1,ABEAST2A,69,ABEAST,LZ_WEST,,,,6276
ABHT_L_A,4254,HARTFORD2A,69,HARTFORD,LZ_WEST,,,,6267
ABINDUST_K,0013,ABIP4A,138,ABINDUST,LZ_WEST,,,,60772
ABINDUST_KX,0018,ABIP4A,138,ABINDUST,LZ_WEST,ABINDUST_RN,,,60772
ABINDUST_LN1,0004,ABIP4A,138,ABINDUST,LZ_WEST,,,,60772
ABINDUST_LN2,0007,ABIP4A,138,ABINDUST,LZ_WEST,,,,60772
ABLSPRRC_K,0001,ABLSPRRC,138,ABLSPRRC,LZ_NORTH,,,,6831
ABLSPRRC_KX,0002,ABLSPRRC,138,ABLSPRRC,LZ_NORTH,,,,6831
ABMB_V_A,8BB1,MULBERRY4B,138,MULBERRY,LZ_WEST,,,,6287
ABMB_V_B,8BB2,MULBERRY4D,138,MULBERRY,LZ_WEST,,,,6288
ABMS_L_A,4280,MAPLESTR4A,138,MAPLESTR,LZ_WEST,,,,6290
ABNTHWS_LD01,L4Z1,LANCIUM4A,138,ABNTHWST,LZ_WEST,,,,101183
ABNW_V_A,8BB1,ABNTHWST4B,138,ABNTHWST,LZ_WEST,,,,6201
ABNW_V_B,8BB2,ABNTHWST4A,138,ABNTHWST,LZ_WEST,,,,6228
ABNW_V_C,9BB1,ABNTHWST2A,69,ABNTHWST,LZ_WEST,,,,6224
ABNW_V_D,9BB2,ABNTHWST2B,69,ABNTHWST,LZ_WEST,,,,6225
ABOM_L_A,4301,OILMILL2A,69,OILMILL,LZ_WEST,,,,6286
ABOV_L_A,4311,OVERSTRE2A,69,OVERSTRE,LZ_WEST,,,,6272
ABOV_V_A,9BB1,OVERSTRE2A,69,OVERSTRE,LZ_WEST,,,,6272
ABPG_L_A,UBB1,ABPOWERS2A,69,ABPOWERS,LZ_WEST,,,,6282
ABPG_L_B,UBB2,ABPOWERS2A,69,ABPOWERS,LZ_WEST,,,,6282
ABPG_V_A,BE01,ABPOWERS2A,69,ABPOWERS,LZ_WEST,,,,6282
ABP_BUS2,BE02,ABPOWERS2A,69,ABPOWERS,LZ_WEST,,,,6282
ABP_BUS3,BE03,ABPOWERS2A,69,ABPOWERS,LZ_WEST,,,,6282
ABRAMS1_8Z,1,ABRAMS1_8,138,ABRRD,LZ_NORTH,,,,2894
ABRAMS2_8Y,3,ABRAMS2_8,138,ABRRD,LZ_NORTH,,,,2895
ABRP_L_A,4326,ROBERSON2A,69,ROBERSON,LZ_WEST,,,,6245
ABSO_BUS2,B002,SOUTHABI4A,138,SOUTHABI,LZ_WEST,,,,6260
ABWALNUT_L_A,4374,ABWALNUT2A,69,ABWALNUT,LZ_WEST,,,,6281
ACA_LD1,LD01,ACA_UNIT1,34.5,ACACIA,LZ_WEST,,,,170200
ACH_138B,138B,ARCHER_POI_8,138,ACH,LZ_HOUSTON,,,,42570
ACH_138D,138D,ARCHER_POI_8,138,ACH,LZ_HOUSTON,,,,42570
ACH_138H,138H,ARCHER_POI_8,138,ACH,LZ_HOUSTON,,,,42570
ACKERLY_9X,1873,ACKERLY_9,69,ACRLY,LZ_WEST,,,,1362
ACKRLY1_EB,0003,ACKERLY_8,138,ACKRLY,LZ_WEST,,,,9401
ACLINE_EB,E10,ECEC_8,138,ECEC,LZ_WEST,,,,132313
ACTON,6915,ACTON,138,ACT,LZ_NORTH,,,,373
ADERHOLD_L_A,0008,ADERHOLDSUB8,138,ADERHOLD,LZ_SOUTH,,,,5754
ADERHOLD_L_B,0010,ADERHOLDSUB8,138,ADERHOLD,LZ_SOUTH,,,,5754
ADICKS_138A,138A,ADICKS__B138,138,ADK,LZ_HOUSTON,,,,45610
ADICKS_138N,138N,ADICKS24T3_8,138,ADK,LZ_HOUSTON,,,,45611
ADICKS_345B,345B,ADICKS__B345,345,ADK,LZ_HOUSTON,,ADK,HB_HOUSTON,45600
ADICKS__138C,138C,ADICKS__B138,138,ADK,LZ_HOUSTON,,,,45610
ADICKS__345D,345D,ADICKS__B345,345,ADK,LZ_HOUSTON,,ADK,HB_HOUSTON,45600
ADICKS__8030,138F,ADICKS__B138,138,ADK,LZ_HOUSTON,,,,45610
ADK_V_C,138L,ADICKS__B138,138,ADK,LZ_HOUSTON,,,,45610
ADL_BESS1,0007,ADL_S1,34.5,ADL,LZ_HOUSTON,,,,113541
ADL_LD1,0004,ADL_S1,34.5,ADL,LZ_HOUSTON,,,,113541
ADL_LN1,0001,ADL_8,138,ADL,LZ_HOUSTON,ADL_RN,,,113542
ADL_SLR1,0006,ADL_S1,34.5,ADL,LZ_HOUSTON,,,,113541
ADOBEMEW_8X,1428,ADOBEMEW_8,138,ADMDS,LZ_WEST,,,,1178
ADSN1_8V,6612,ADSN1_8,138,ADISN,LZ_NORTH,,,,2569
ADSN1_8W,6611,ADSN2_8,138,ADISN,LZ_NORTH,,,,2572
ADVANCE,0001,ADVANCE,69,ADVANCE1,LZ_NORTH,,,,518
ADVANCE2,0009,ADVANCE,69,ADVANCE1,LZ_NORTH,,,,518
ADVANCE_K,D138,AMD,138,ADVANCE,LZ_SOUTH,,,,9151
ADVANCE_KH,946B,AMD,138,ADVANCE,LZ_SOUTH,,,,9151
AD_K,8030,ALDINE_S86_8,138,AD,LZ_HOUSTON,,,,45640
AD_KH,8040,ALDINE_S86_8,138,AD,LZ_HOUSTON,,,,45640
AD_KU,8035,ALDINE_S86_8,138,AD,LZ_HOUSTON,,,,45640
AEEC_A100,A100,ANTLP_G,230,AEEC,LZ_WEST,,,,141605
AEEC_E100,E100,AEEC_5,345,AEEC,LZ_WEST,,,,141607
AEP11,11,STILLMAN,138,STILLMAN,LZ_SOUTH,,,,79601
AEP35,35,STILLMAN,138,STILLMAN,LZ_SOUTH,,,,79601
AE_138B,138B,ANGLTN__B138,138,AE,LZ_HOUSTON,,,,42110
AE_138C,138C,ANGLTN__B138,138,AE,LZ_HOUSTON,,,,42110
AE_138D,138D,ANGLTN26T1_8,138,AE,LZ_HOUSTON,,,,42111
AE_138E,138E,ANGLTN__B138,138,AE,LZ_HOUSTON,,,,42110
AE_138F,138F,ANGLTN__B138,138,AE,LZ_HOUSTON,,,,42110
AE_138G,138G,ANGLTN__B138,138,AE,LZ_HOUSTON,,,,42110
AE_138H,138H,ANGLTN__B138,138,AE,LZ_HOUSTON,,,,42110
AE_8045,8045,ANGLTN__B138,138,AE,LZ_HOUSTON,,,,42110
AE_8050,8050,ANGLTN__B138,138,AE,LZ_HOUSTON,,,,42110
AE_8055,8055,ANGLTN26T1_8,138,AE,LZ_HOUSTON,,,,42111
AE_8060,8060,ANGLTN__B138,138,AE,LZ_HOUSTON,,,,42110
AE_8065,8065,ANGLTN__B138,138,AE,LZ_HOUSTON,,,,42110
AE_8115,8115,ANGLTN__B138,138,AE,LZ_HOUSTON,MYR_ALL,,,42110
AE_K,138A,ANGLTN__B138,138,AE,LZ_HOUSTON,,,,42110
AE_TR1,TR1,ANGLTN26T1_8,138,AE,LZ_HOUSTON,AE_RN,,,42111
AE_TR2,TR2,ANGLTN__B138,138,AE,LZ_HOUSTON,,,,42110
AFTON_L_A,4887,AFTON2A,69,AFTON,LZ_WEST,,,,6142
AF_K,8020,ALIEF__S09_8,138,AF,LZ_HOUSTON,,,,44020
AF_KY,8025,ALIEF__S09_8,138,AF,LZ_HOUSTON,,,,44020
AF_KZ,8030,ALIEF__S09_8,138,AF,LZ_HOUSTON,,,,44020
AGLPD_CFMR1,CN7,ANGEL_P8,138,AGLPD,LZ_WEST,,,,18667
AGMB2,3754,ANGUSVAL_MB2,138,ANGUS,LZ_SOUTH,,,,9156
AGNES,2119,AGNES,138,AGNES,LZ_NORTH,,,,532
AGR1,6951,TNOLNEY___0,69,OLNEYTN,LZ_WEST,OLNEYTN_AGR1,,,37830
AGR_A,0007,REDGATE_G2,13.8,REDGATE,LZ_SOUTH,,,,161033
AGR_B,0006,REDGATE_G1,13.8,REDGATE,LZ_SOUTH,,,,161032
AGR_C,0009,REDGATE_G4,13.8,REDGATE,LZ_SOUTH,,,,161035
AGR_D,0008,REDGATE_G3,13.8,REDGATE,LZ_SOUTH,,,,161034
AGUAYO_1,0002,AGUAYO_5,345,AGUAYO,LZ_NORTH,,,,153033
AGYO_LD1,0004,AGUAYO_W1,34.5,AGUAYO,LZ_NORTH,,,,153031
AG_MB1,3750,ANGUSVAL_MB1,138,ANGUS,LZ_SOUTH,,,,9155
AILEEN_L_A,4230,AILEEN2A,138,AILEEN,LZ_WEST,,,,6291
AIR5200B,2,AIRPRTRD,138,AIRPRTRD,LZ_WEST,,,,23845
AIR5TR1,6,AIRPRTRD,138,AIRPRTRD,LZ_WEST,,,,23845
AIRCO_8,6947,AIRCO_8,138,AIRCO,LZ_NORTH,,,,2720
AIRLINE_LD01,LD01,AIRLINE4B,138,AIRLINE,LZ_SOUTH,,,,8581
AIRLINE_LD02,LD02,AIRLINE4B,138,AIRLINE,LZ_SOUTH,,,,8581
AIRLINE_LD03,LD03,AIRLINE4C,138,AIRLINE,LZ_SOUTH,,,,8706
AIRLINE_LD04,LD04,AIRLINE4C,138,AIRLINE,LZ_SOUTH,,,,8706
AIRLINE_V_A,B131,AIRLINE4A,138,AIRLINE,LZ_SOUTH,,,,8490
AIRLINE_V_B,B132,AIRLINE4A,138,AIRLINE,LZ_SOUTH,,,,8490
AIRLIQD1T_8Y,0499,AIRLIQD1_8,138,ARLQD,LZ_NORTH,,,,2606
AIRLIQD1_8,9279,AIRLIQD_P8,138,ARLQE,LZ_NORTH,,,,2283
AIRMOBILE,12,AIRPRTRD,138,AIRPRTRD,LZ_WEST,,,,23845
AIRPARK_8Z,1766,AIRPARK_8,138,AIRPK,LZ_WEST,,,,1325
AIRPORT_AG1,0001,AIRPORT,138,AIRPORT,LZ_SOUTH,,,,59460
AIRPRD1_8X,5650,AIRPRD1_8,138,ARPRD,LZ_NORTH,,,,2306
AIRPRD1_8Y,5649,AIRPRD1_8,138,ARPRD,LZ_NORTH,,,,2306
AIRPRD1_8Z,5648,AIRPRD1_8,138,ARPRD,LZ_NORTH,,,,2306
AIRPRT69T,9500,AIRPRT69,69,AIRPORT,LZ_SOUTH,,,,5946
AIRP_EB,0103,AIRPORT,138,AIRPORT,LZ_SOUTH,,,,59460
AIRP_L_A,4384,AIRP2A,69,AIRP,LZ_WEST,,,,6580
AIRP_V_A,9BB1,AIRP2A,69,AIRP,LZ_WEST,,,,6580
AIR_LIQC_L_A,0005,AIR_LIQC2A,69,AIR_LIQC,LZ_SOUTH,,,,8959
AIR_LIQ_LANT,L658,LANTANA2A,69,LANTANA,LZ_SOUTH,,,,8965
AI_138A,138A,ALEXIS__TAPB,138,AI,LZ_HOUSTON,,,,48010
AI_138B,138B,ALEXIS__TAPA,138,AI,LZ_HOUSTON,,,,48011
AI_TR1,TR1,ALEXIS84T1_8,138,AI,LZ_HOUSTON,,,,41392
AI_TR2,TR2,ALEXIS87T2_8,138,AI,LZ_HOUSTON,,,,41391
AJAX_LD1,0006,AJAX_UNIT1,34.5,AJAXWIND,LZ_WEST,,,,143521
AJAX_LD2,0011,AJAX_UNIT2,34.5,AJAXWIND,LZ_WEST,,,,143522
AJAX_LN1,0001,AJAX_5,345,AJAXWIND,LZ_WEST,,,,143525
AJAX_UN1,0012,AJAX_UNIT1,34.5,AJAXWIND,LZ_WEST,,,,143521
AJAX_UN2,0016,AJAX_UNIT2,34.5,AJAXWIND,LZ_WEST,,,,143522
AJO_345_1,2050,AJO7A,345,AJO,LZ_SOUTH,,,,80076
AJO_345_2,1200,AJO7A,345,AJO,LZ_SOUTH,,,,80076
AJ_CK2,26,AJ_SWOPE,345,AJ_SWOPE,LZ_WEST,,AJ_SWOPE,HB_PAN,23906
AKSL_LD1,1004,ASCK_SLR_S1,34.5,ASCK_SLR,LZ_NORTH,,,,154221
AKSL_LD2,2003,ASCK_SLR_S2,34.5,ASCK_SLR,LZ_NORTH,,,,154222
AKSL_LN1,1000,ASCK_SLR_5,345,ASCK_SLR,LZ_NORTH,,,,154227
AKSL_SLR1,1005,ASCK_SLR_S1,34.5,ASCK_SLR,LZ_NORTH,,,,154221
AKSL_SLR2,2004,ASCK_SLR_S2,34.5,ASCK_SLR,LZ_NORTH,,,,154222
AK_04_1,3007,HUD_8,138,HUD,LZ_HOUSTON,,,,111321
AK_04_2,4007,HUD_8,138,HUD,LZ_HOUSTON,,,,111321
AK_138A,138A,AMOCO__XB138,138,AK,LZ_HOUSTON,,,,42090
AK_138B,138B,AMOCO__XB138,138,AK,LZ_HOUSTON,,,,42090
AK_GT1__8040,8005,_AK__AK_G1,13.8,AK,LZ_HOUSTON,,,,110231
AK_K,0025,AMOCO__XB138,138,AK,LZ_HOUSTON,,,,42090
AK_KA,0027,AMOCO__XB138,138,AK,LZ_HOUSTON,,,,42090
AK_KH,0029,AMOCO__XB138,138,AK,LZ_HOUSTON,,,,42090
AK_KX,0033,AMOCO__XB138,138,AK,LZ_HOUSTON,,,,42090
AK_TR5,0006,AMOCO__XB138,138,AK,LZ_HOUSTON,,,,42090
ALAMO_CM_A,0772,ALAMO_CM,138,P1,LZ_SOUTH,,,,5001
ALAMO_CM_C,0771,ALAMO_CM,138,P1,LZ_SOUTH,,,,5001
ALAZAN_L_A,0002,ALAZAN4A,138,ALAZAN,LZ_SOUTH,,,,8515
ALBANY_L_A,4390,ALBANY2A,69,ALBANY,LZ_WEST,,,,6207
ALBANY_V_A,9BB1,ALBANY2A,69,ALBANY,LZ_WEST,,,,6207
ALBNY_FD_L_A,DBB1,ALBNY_FD2A,69,ALBNY_FD,LZ_WEST,,,,6202
ALCAT_XFR3,CN1,ALCATRAZ_8,138,ALCAT,LZ_WEST,,,,11356
ALCOA_L_A,D102,ALCOA_2_8,138,ALCOA,LZ_SOUTH,,,,110303
ALCOA_L_B,D101,ALCOA_1_8,138,ALCOA,LZ_SOUTH,,,,110302
ALCON_XFMR1,0060,ALCON1_8,138,ALCON,LZ_NORTH,,,,1962
ALCON_XFMR2,0006,ALCON2_8,138,ALCON,LZ_NORTH,,,,1963
ALCORN,6920,ALCORN,69,ALCORN,LZ_NORTH,,,,758
ALD1,CN10,ANTS6847,138,ANTSS_RC,LZ_NORTH,,,,6847
ALD2,CN7,ANTS6847,138,ANTSS_RC,LZ_NORTH,,,,6847
ALDTU_LDXFR2,1103,ALEDO2_8,138,ALDTU,LZ_NORTH,,,,11579
ALEDO,0001,ALEDO,138,ALEDO,LZ_NORTH,,,,527
ALEDO2,0022,ALEDO,138,ALEDO,LZ_NORTH,,,,527
ALEDOTAP,0007,ALEDO1_8,138,ALDTU,LZ_NORTH,,,,1579
ALGODON_U1,0005,ALGODON_W1,34.5,ALGODON,LZ_SOUTH,,,,163071
ALGODON_U2,0006,ALGODON_W2,34.5,ALGODON,LZ_SOUTH,,,,163072
ALGO_LD1,0004,ALGODON_L,34.5,ALGODON,LZ_SOUTH,,,,163073
ALGO_LN1,0001,ALGODON_5,345,ALGODON,LZ_SOUTH,,,,163075
ALHUB_RC_L_A,0002,ALHUB_RC,138,ALHUB_RC,LZ_NORTH,,,,6826
ALHUB_RC_L_B,0006,ALHUB_RC,138,ALHUB_RC,LZ_NORTH,,,,6826
ALIBATES_39,39,ALIBATES,345,ALIBATES,LZ_WEST,ROUTE66_RN,ALIBATES,HB_PAN,23900
ALIBUS1AN,50,ALIBATES,345,ALIBATES,LZ_WEST,,ALIBATES,HB_PAN,23900
ALIBUS1N,5,ALIBATES,345,ALIBATES,LZ_WEST,,ALIBATES,HB_PAN,23900
ALIBUS2AS,52,ALIBATES,345,ALIBATES,LZ_WEST,,ALIBATES,HB_PAN,23900
ALIBUS2S,34,ALIBATES,345,ALIBATES,LZ_WEST,,ALIBATES,HB_PAN,23900
ALICE_L_A,3029,ALICE2B,69,ALICE,LZ_SOUTH,,,,8597
ALICE_L_B,3030,ALICE2A,69,ALICE,LZ_SOUTH,,,,8500
ALICE_V_A,1061,ALICE2A,69,ALICE,LZ_SOUTH,,,,8500
ALIQUIN_LD01,S368,AIR_LIQI4A,138,ALIQUING,LZ_SOUTH,,,,8979
ALIQUI_LD01,LD02,AIR_LIQI4A,138,ALIQUING,LZ_SOUTH,,,,8979
ALI_CK2,51,ALIBATES,345,ALIBATES,LZ_WEST,,ALIBATES,HB_PAN,23900
ALKLK_EB3,CN2,ALKALILK2_8,138,ALKLK,LZ_WEST,,,,11167
ALKLK_LXFMR1,1102,ALKALILK_8,138,ALKLK,LZ_WEST,,,,1169
ALKLK_LXFMR2,1104,ALKALILK_8,138,ALKLK,LZ_WEST,,,,1169
ALK_138A,138A,ALKANE_X96B8,138,ALK,LZ_HOUSTON,,,,40160
ALK_138B,138B,ALKANE_X96B8,138,ALK,LZ_HOUSTON,,,,40160
ALK_8000,8000,ALKANE_X96B8,138,ALK,LZ_HOUSTON,,,,40160
ALK_8005,8005,ALKANE_X96B8,138,ALK,LZ_HOUSTON,,,,40160
ALK_8010,8010,ALKANE_X96B8,138,ALK,LZ_HOUSTON,,,,40160
ALK_8030,8030,ALKANE_X96B8,138,ALK,LZ_HOUSTON,,,,40160
ALK_8035,8035,ALKANE_X96B8,138,ALK,LZ_HOUSTON,,,,40160
ALK_TR1,TR1,ALKANE_X96B8,138,ALK,LZ_HOUSTON,,,,40160
ALK_TR2,TR2,ALKANE_X96B8,138,ALK,LZ_HOUSTON,,,,40160
ALK_TR3,TR3,ALKANE_X96B8,138,ALK,LZ_HOUSTON,,,,40160
ALK_TR4,TR4,ALKANE_X96B8,138,ALK,LZ_HOUSTON,,,,40160
ALLEN2_8P,6518,ALLEN1_8,138,ALLEN,LZ_NORTH,,,,2531
ALLEN2_8Q,6517,ALLEN2_8,138,ALLEN,LZ_NORTH,,,,2549
ALLEN2_8U,0011,ALLEN2_8,138,ALLEN,LZ_NORTH,,,,2549
ALLENSW1_5,BB1,ALLENSW1_5,345,ALNSW,LZ_NORTH,,ALNSW,HB_NORTH,2513
ALLENSW2_5,BB2,ALLENSW2_5,345,ALNSW,LZ_NORTH,,ALNSW,HB_NORTH,2514
ALLENSW_E8,BB1E,ALLENSW_E8,138,ALNSW,LZ_NORTH,,,,2510
ALLENSW_E8D,6203,ALLENSW_E8,138,ALNSW,LZ_NORTH,,,,2510
ALLENSW_W8,BB1W,ALLENSW_W8,138,ALNSW,LZ_NORTH,,,,2509
ALLENSW_W8G,6202,ALLENSW_W8,138,ALNSW,LZ_NORTH,,,,2509
ALLEN_K,2000,ALLEN1_8,138,ALLEN,LZ_NORTH,,,,2531
ALLEN_N2_8O,6528,ALLEN_N2_8,138,ALNTH,LZ_NORTH,,,,2548
ALLEN_N2_8P,6527,ALLEN_N1_8,138,ALNTH,LZ_NORTH,,,,2533
ALLEN_N2_8T,0003,ALLEN_N2_8,138,ALNTH,LZ_NORTH,,,,2548
ALLISON_T9W,7777,ALLISON,138,ALISN,LZ_NORTH,,,,578
ALLNC_8_2,CN5,ALLIANCEL1_8,138,ALLNC,LZ_NORTH,,,,12080
ALLNC_8_3,CN6,ALLIANCEL1_8,138,ALLNC,LZ_NORTH,,,,12080
ALLNC_8_4,CN14,ALLIANCEL2_8,138,ALLNC,LZ_NORTH,,,,12081
ALLNC_FAKE,BB2,ALLIANCE1_5,345,ALLNC,LZ_NORTH,,ALLNC,HB_NORTH,1855
ALMC_1_BUS1,B131,ALMC4A,138,ALMC,LZ_WEST,,,,6680
ALMC_MOB5,MOB1,ALMC2B,69,ALMC,LZ_WEST,,,,6672
ALMC_V_A,B061,ALMC2A,69,ALMC,LZ_WEST,,,,6678
ALMO_LN,ALMO,OCI_ALM_HIGH,138,OCI_ALM1,LZ_SOUTH,,,,170382
ALMO_UN1,SOLA,OCI_ALM1_G1,34.5,OCI_ALM1,LZ_SOUTH,,,,170381
ALNTH_KJ,0000,ALLEN_N2_8,138,ALNTH,LZ_NORTH,,,,2548
ALN_CRK_1,1,ALN_CRK,345,ALN_CRK,LZ_WEST,,,,79006
ALN_CRK_5,5,ALN_CRK,345,ALN_CRK,LZ_WEST,SLTFRK_UN1_2,,,79006
ALN_CRK_6,6,ALN_CRK,345,ALN_CRK,LZ_WEST,,,,79006
ALOESUB9V,1799,ALOESUB9,69,ALOES,LZ_SOUTH,,,,5606
ALOES_AG1,5606,ALOESUB9,69,ALOES,LZ_SOUTH,,,,5606
ALP1,L995,BRONCO2A,69,BRONCO,LZ_WEST,,,,6674
ALPHA2_8O,67,ALPHA2_8,138,ALPHA,LZ_NORTH,,,,2597
ALPHA2_8V,65,ALPHA1_8,138,ALPHA,LZ_NORTH,,,,2596
ALPHA2_8W,63,ALPHA2_8,138,ALPHA,LZ_NORTH,,,,2597
ALPHA2_8X,61,ALPHA1_8,138,ALPHA,LZ_NORTH,,,,2596
ALPHA_LD01,LD01,HOTIRON4A,138,ALPHA_VA,LZ_SOUTH,,,,8566
ALPHA_LD02,LD02,HOTIRON4B,138,ALPHA_VA,LZ_SOUTH,,,,8569
ALPINE_L_A,0011,ALPINE2A,69,ALPINE,LZ_WEST,,,,6666
ALPINE_L_B,5186,ALPINE2A,69,ALPINE,LZ_WEST,,,,6666
ALPINE_V_A,9BB1,ALPINE2A,69,ALPINE,LZ_WEST,,,,6666
ALP_BESS_B1,0006,ALP_BESS_B1,34.5,ALP_BESS,LZ_WEST,,,,136401
ALP_BESS_EB,0000,ALP_BESS_8,138,ALP_BESS,LZ_WEST,,,,136402
ALP_BESS_LD1,0005,ALP_BESS_B1,34.5,ALP_BESS,LZ_WEST,,,,136401
ALQD_1,B133,AIR_LIQI4A,138,ALIQUING,LZ_SOUTH,,,,8979
ALQD_2,B131,AIR_LIQI4A,138,ALIQUING,LZ_SOUTH,,,,8979
ALTON_MV_L_A,0011,ALTONSUB8,138,ALTON_MV,LZ_SOUTH,,,,5772
ALTON_MV_L_B,0012,ALTONSUB8,138,ALTON_MV,LZ_SOUTH,,,,5772
ALTUDA_L_A,8BB1,L_ALTUDA9_1Y,69,ALTUDA,LZ_WEST,,,,76668
ALVARADO1_8W,0005,ALVARADO1_8,138,ALVDO,LZ_NORTH,,,,2297
ALVARADO1_8Y,0001,ALVARADO1_8,138,ALVDO,LZ_NORTH,,,,2297
ALVIN,2160,TNMAINLAND1,138,MAINLAND,LZ_HOUSTON,,,,38830
ALVIN_6490,6490,TNALVIN___1,138,ALVIN,LZ_HOUSTON,,,,39030
ALVORD1_8X,8075,ALVORD1_8,138,ALVRD,LZ_NORTH,,,,1561
ALVORD1_8Y,BB3,ALVORD1_8,138,ALVRD,LZ_NORTH,,,,1561
ALVRD_X1,MO89,ALVORD1_8,138,ALVRD,LZ_NORTH,,,,1561
ALVRD_X2,MO88,ALVORD1_8,138,ALVRD,LZ_NORTH,,,,1561
AL_138A,138A,ALTA_L_S93_8,138,AL,LZ_HOUSTON,,,,42061
AL_8005,8005,ALTA_L_S93_8,138,AL,LZ_HOUSTON,,,,42061
AL_8010,8010,ALTA_L_S93_8,138,AL,LZ_HOUSTON,,,,42061
AL_TR1,TR1,ALTA_L_S93_8,138,AL,LZ_HOUSTON,,,,42061
AL_TR2,TR2,ALTA_L_S93_8,138,AL,LZ_HOUSTON,,,,42061
AMADEUS1_1,0001,WKNAMAD1,345,AMADEUS1,LZ_WEST,AMADEUS_ALL,,,182404
AMADEUS1_LD,0007,WKNAMAD_W1,34.5,AMADEUS1,LZ_WEST,,,,182401
AMADEUS1_LN,0004,WKNAMAD1,345,AMADEUS1,LZ_WEST,,,,182404
AMADEUS1_W1,00U1,WKNAMAD_W1,34.5,AMADEUS1,LZ_WEST,,,,182401
AMADEUS1_W2,00U2,WKNAMAD_W2,34.5,AMADEUS1,LZ_WEST,,,,182402
AMADEUS2_LD,0004,WKNAMAD_W3,34.5,AMADEUS2,LZ_WEST,,,,182403
AMADEUS2_LN,0001,WKNAMAD2,345,AMADEUS2,LZ_WEST,,,,182405
AMADEUS2_W3,00U3,WKNAMAD_W3,34.5,AMADEUS2,LZ_WEST,,,,182403
AMAD_LD1,0005,AMAD_ESS_B1,34.5,AMAD_ESS,LZ_NORTH,,,,121091
AMAD_LN1,0001,AMAD_ESS_8,138,AMAD_ESS,LZ_NORTH,,,,121092
AMAD_U1,0070,AMAD_ESS_B1,34.5,AMAD_ESS,LZ_NORTH,,,,121091
AMBR_L_A,5195,AMBR2A,69,AMBR,LZ_WEST,,,,6419
AMDX,8309,AMD,138,ADVANCE,LZ_SOUTH,,,,9151
AMDY,8310,AMD,138,ADVANCE,LZ_SOUTH,,,,9151
AMD_SA_B,1382,AMD_SA,138,W3,LZ_SOUTH,,,,5002
AMELIA2_8W,7203,AMELIA2_8,138,AMLIA,LZ_NORTH,,,,2816
AMELIA2_8X,7202,AMELIA1_8,138,AMLIA,LZ_NORTH,,,,2815
AMERIGAS1Z,0683,AMERIGAS1_8,138,AMGAS,LZ_NORTH,,,,3600
AMISTAD_1,0006,AMISTAD8,138,AMISTAD,LZ_SOUTH,,,,5798
AMISTAD_2,0005,AMISTAD8,138,AMISTAD,LZ_SOUTH,,,,5798
AMISTAD_AG1,8035,AMI_AMISTAG2,13.8,AMISTAD,LZ_SOUTH,,,,180022
AMISTAD_AG2,8034,AMI_AMISTAG1,13.8,AMISTAD,LZ_SOUTH,,,,180021
AMISTAD_E_1,0002,AMISTAD8,138,AMISTAD,LZ_SOUTH,,,,5798
AMISTAD_V_A,G138,AMISTAD8,138,AMISTAD,LZ_SOUTH,AMISTAD_ALL,,,5798
AMISTD_K,1382,AMISTD4A,138,AMISTD,LZ_SOUTH,,,,8686
AMI_AMISTAG1,G1L,AMI_AMISTAG1,13.8,AMISTAD,LZ_SOUTH,,,,180021
AMI_AMISTAG2,G2L,AMI_AMISTAG2,13.8,AMISTAD,LZ_SOUTH,,,,180022
AMNCOWD_8,1338,AMNCOWD_8,138,NCWAM,LZ_WEST,,,,1144
AMOCOOIL_E_1,0014,AMOCOOIL_5_8,138,AMOCOOIL,LZ_HOUSTON,AMOCO_PUN1,,,110278
AMOCOOIL_E_2,0107,AMOCOOIL_6_8,138,AMOCOOIL,LZ_HOUSTON,AMOCO_PUN2,,,110279
AMOCOOIL_K,0145,AMO_AMOCO_S2,21,AMOCOOIL,LZ_HOUSTON,,,,110284
AMOCOOI_BB2,BB2,AMOCOOIL_4_8,138,AMOCOOIL,LZ_HOUSTON,,,,110277
AMOCO_9X,1911,AMOCO_9,69,AMOCO,LZ_WEST,,,,1375
AMOMIDFM_8,BB1,AMOMIDFM_8,138,MDFAM,LZ_WEST,,,,1282
AMOMIDFM_8Y,1656,AMOMIDFM_8,138,MDFAM,LZ_WEST,,,,1282
AMOMIDFM_8Z,1655,AMOMIDFM_8,138,MDFAM,LZ_WEST,,,,1282
AMOSCR_2621,2621,L_AMOSCR5_1Y,345,AMOSCR,LZ_WEST,,,,7077
AMOSCR_2681,2681,L_AMOSCR5_1Y,345,AMOSCR,LZ_WEST,MAVCRK_W_ALL,,,7077
AMOSCR_2701,2701,L_AMOSCR5_1Y,345,AMOSCR,LZ_WEST,,,,7077
AMOSFOST_8,BB1,AMOSFOST_8,138,SFAMO,LZ_WEST,,,,1130
AMOSFOST_8Z,1309,AMOSFOST_8,138,SFAMO,LZ_WEST,,,,1130
AMO_AMOCO_1,6345,AMOC_AMOCO_1,13.8,AMOCOOIL,LZ_HOUSTON,,,,110271
AMO_AMOCO_2,6347,AMOC_AMOCO_2,13.8,AMOCOOIL,LZ_HOUSTON,,,,110272
AMO_AMOCO_5,3813,AMO_AMOCO_S1,13.8,AMOCOOIL,LZ_HOUSTON,,,,110283
AMO_AMOCO_G1,0021,AMO_AMOCO_G1,18,AMOCOOIL,LZ_HOUSTON,,,,110280
AMO_AMOCO_G2,0022,AMO_AMOCO_G2,18,AMOCOOIL,LZ_HOUSTON,,,,110281
AMO_AMOCO_G3,0023,AMO_AMOCO_G3,18,AMOCOOIL,LZ_HOUSTON,,,,110282
AMO_AMOCO_S1,0009,AMOC_AMOCO_5,13.8,AMOCOOIL,LZ_HOUSTON,,,,110273
AMO_AMOCO_S2,0103,AMOCOOIL_6_8,138,AMOCOOIL,LZ_HOUSTON,AMO_AMOCO_S2,,,110279
AM_138A,138B,ALMEDA26T3_8,138,AM,LZ_HOUSTON,,,,42043
AM_138B,138A,ALMEDA_T07_8,138,AM,LZ_HOUSTON,,,,42041
AM_8040,8040,ALMEDA_T07_8,138,AM,LZ_HOUSTON,,,,42041
AM_8045,8045,ALMEDA_T07_8,138,AM,LZ_HOUSTON,,,,42041
AM_8050,8050,ALMEDA26T3_8,138,AM,LZ_HOUSTON,,,,42043
AM_MFG1_8,9052,AM_MFG1_8,138,AMMFG,LZ_NORTH,,,,2147
AM_TR1,TR1,ALMEDA_T07_8,138,AM,LZ_HOUSTON,,,,42041
AM_TR2,TR2,ALMEDA_T07_8,138,AM,LZ_HOUSTON,,,,42041
AM_TR3,TR3,ALMEDA26T3_8,138,AM,LZ_HOUSTON,,,,42043
AN09,0009,ANSON1_L,34.5,ANSON1,LZ_WEST,,,,182823
AN10,0010,ANSON1_L,34.5,ANSON1,LZ_WEST,,,,182823
ANA,0020,ANACACHO_ANA,34.5,ANACACHO,LZ_SOUTH,,,,181451
ANARENE1_9X,8187,ANARENE1_9,69,ANARN,LZ_WEST,,,,1604
ANASE_XFR1,CN3,ANNASE_8,138,ANASE,LZ_NORTH,,,,2704
ANA_LINE,0100,ANACACHO,138,ANACACHO,LZ_SOUTH,,,,181452
ANA_LOAD,0002,ANACACHO_ANA,34.5,ANACACHO,LZ_SOUTH,,,,181451
ANB2,ANB2,ANTS6847,138,ANTSS_RC,LZ_NORTH,,,,6847
ANBC,ANBC,ANTS6847,138,ANTSS_RC,LZ_NORTH,,,,6847
ANCHOR_16,0016,ANCHOR_W1,34.5,ANCHOR,LZ_NORTH,,,,151601
ANCHOR_17,0017,ANCHOR_W3,34.5,ANCHOR,LZ_NORTH,,,,151921
ANCHOR_BESS1,0007,ANCHOR_BESS1,34.5,ANCHOR,LZ_NORTH,,,,151911
ANCHOR_BESS2,0008,ANCHOR_BESS2,34.5,ANCHOR,LZ_NORTH,,,,151912
ANCHOR_LD1,0009,ANCHOR_W1,34.5,ANCHOR,LZ_NORTH,,,,151601
ANCHOR_LD2,0010,ANCHOR_W3,34.5,ANCHOR,LZ_NORTH,,,,151921
ANCHWIND1,0011,ANCHOR_W1,34.5,ANCHOR,LZ_NORTH,,,,151601
ANCHWIND2,0012,ANCHOR_W1,34.5,ANCHOR,LZ_NORTH,,,,151601
ANCHWIND3,0013,ANCHOR_W3,34.5,ANCHOR,LZ_NORTH,,,,151921
ANCHWIND4,0014,ANCHOR_W3,34.5,ANCHOR,LZ_NORTH,,,,151921
ANCHWIND5,0015,ANCHOR_W3,34.5,ANCHOR,LZ_NORTH,,,,151921
ANCH_LN1,0001,ANCHOR_5,345,ANCHOR,LZ_NORTH,,,,151602
ANCP,ANCP,ANTS6847,138,ANTSS_RC,LZ_NORTH,,,,6847
ANDERSON_A,0784,ANDERSON,138,L0,LZ_SOUTH,,,,5003
ANDERSON_L_A,0500,ANDERSON,138,L0,LZ_SOUTH,,,,5003
ANDERSON_V_A,8BB2,ANDERSON,138,L0,LZ_SOUTH,,,,5003
ANDICE_7702,7702,P_ANDICE8_1_,138,ANDICE,LZ_SOUTH,,,,70522
ANDICE_7722,7722,P_ANDICE8_1_,138,ANDICE,LZ_SOUTH,,,,70522
ANDICE_7732,7732,P_ANDICE8_1_,138,ANDICE,LZ_SOUTH,,,,70522
ANDICE_7752,7752,P_ANDICE8_1_,138,ANDICE,LZ_SOUTH,NF_BRP_RN,,,70522
ANDM_BESS1,0023,ANDMDSLR_S1,34.5,ANDMDSLR,LZ_WEST,,,,183521
ANDM_BESS2,0022,ANDMDSLR_S2,34.5,ANDMDSLR,LZ_WEST,,,,183522
ANDM_LD1,0007,ANDMDSLR_S1,34.5,ANDMDSLR,LZ_WEST,,,,183521
ANDM_LD2,0009,ANDMDSLR_S2,34.5,ANDMDSLR,LZ_WEST,,,,183522
ANDM_LN1,0002,ANDMDSLR_5,345,ANDMDSLR,LZ_WEST,ANDMDSLR_ALL,,,183525
ANDM_UNT1,0019,ANDMDSLR_S1,34.5,ANDMDSLR,LZ_WEST,,,,183521
ANDM_UNT2,0020,ANDMDSLR_S2,34.5,ANDMDSLR,LZ_WEST,,,,183522
ANDRD_K,1380,ANDREWS_8,138,ANDRD,LZ_WEST,,,,1156
ANEM_LD1,1005,ANEM_ESS_B1,34.5,ANEM_ESS,LZ_SOUTH,,,,163861
ANEM_LN1,1001,ANEM_ESS_5,345,ANEM_ESS,LZ_SOUTH,,,,163862
ANEM_UN1,1006,ANEM_ESS_B1,34.5,ANEM_ESS,LZ_SOUTH,,,,163861
ANETA,2287,ANNETTA,138,ANNETTA,LZ_NORTH,,,,485
ANGL_6619,6619,TNANGLETON1,138,ANGLETON,LZ_HOUSTON,,,,39560
ANGL_6620,6620,TNANGLETON1,138,ANGLETON,LZ_HOUSTON,,,,39560
ANGUSVAL,8314,ANGUSVAL_MB1,138,ANGUS,LZ_SOUTH,,,,9155
ANGUSVALZ,3755,ANGUSVAL_MB2,138,ANGUS,LZ_SOUTH,,,,9156
ANG_LD1,0009,ANG_SLR_S1,34.5,ANG_SLR,LZ_WEST,,,,183781
ANG_LD2,0010,ANG_SLR_B1,34.5,ANG_SLR,LZ_WEST,,,,183785
ANG_S794,S794,ANGSTRM7A,345,ANGSTROM,LZ_SOUTH,,,,8249
ANG_SLR_01,0001,ANG_SLR_5,345,ANG_SLR,LZ_WEST,ANG_ALL,,,183784
ANG_UN1,0012,ANG_SLR_S1,34.5,ANG_SLR,LZ_WEST,,,,183781
ANNASW_5,BB1,ANNASW_5,345,ANASW,LZ_NORTH,,ANASW,HB_NORTH,2373
ANNASW_5A,0500,ANNASW_5,345,ANASW,LZ_NORTH,,ANASW,HB_NORTH,2373
ANNASW_5Y,5838,ANNASW_5,345,ANASW,LZ_NORTH,,ANASW,HB_NORTH,2373
ANNASW_8,0BB1,ANNASW_8,138,ANASW,LZ_NORTH,,,,2374
ANNASW_N5,BB1N,ANNASW_5,345,ANASW,LZ_NORTH,,ANASW,HB_NORTH,2373
ANNASW_S8,0BB2,ANNASW_8,138,ANASW,LZ_NORTH,,,,2374
ANNA_RC_L_A,0117,ANNA_RC,138,ANNA_RC,LZ_NORTH,,,,6819
ANNA_RC_L_B,0118,ANNA_RC,138,ANNA_RC,LZ_NORTH,,,,6819
ANNA_ST_L_A,0016,ANNAST4A,138,ANNA_ST,LZ_SOUTH,,,,8637
ANNA_ST_L_B,0017,ANNAST4A,138,ANNA_ST,LZ_SOUTH,,,,8637
ANOL_BES1,0006,ANOL_ESS_B1,34.5,ANOL_ESS,LZ_NORTH,,,,154411
ANOL_LD1,0004,ANOL_ESS_B1,34.5,ANOL_ESS,LZ_NORTH,,,,154411
ANOL_LN1,1000,ANOL_ESS_6,345,ANOL_ESS,LZ_NORTH,ANOL_ESS_RN,,,154415
ANPOI_EB1,S2L1,ANDRANCHT_8,138,ANPOI,LZ_WEST,,,,1081
ANPOI_EB2,T2S2,ANDRANCHT_8,138,ANPOI,LZ_WEST,,,,1081
ANSN_L_A,4403,ANSN2A,69,ANSN,LZ_WEST,,,,6175
ANSN_V_A,9BB1,ANSN2A,69,ANSN,LZ_WEST,,,,6175
ANSO_L_A,4407,ANSO2A,69,ANSO,LZ_WEST,,,,6176
ANS_U1,0008,ANSON2_S1,34.5,ANSON2,LZ_WEST,,,,182921
ANTLP_1,ATL1,ANTLP_G1,13.8,AEEC,LZ_WEST,,,,141601
ANTLP_2,ATL2,ANTLP_G2,13.8,AEEC,LZ_WEST,,,,141602
ANTLP_3,ATL3,ANTLP_G3,13.8,AEEC,LZ_WEST,,,,141603
ANTLR_LDXFR1,CN6,ANTLERHLW_8,138,ANTLR,LZ_NORTH,,,,1643
ANTLR_LDXFR2,CN7,ANTLERHLW_8,138,ANTLR,LZ_NORTH,,,,1643
ANTL_LD1,0004,ANTL_ESS_B1,34.5,ANTL_ESS,LZ_SOUTH,,,,183671
ANTL_LN1,0001,ANTL_ESS_8,138,ANTL_ESS,LZ_SOUTH,,,,183672
AN_K,8030,AIRLIN_S21_8,138,AN,LZ_HOUSTON,,,,45630
AN_KA,8035,AIRLIN_S21_8,138,AN,LZ_HOUSTON,,,,45630
AN_KI,8040,AIRLIN_S21_8,138,AN,LZ_HOUSTON,,,,45630
APACHE_6388,6388,TNAPACHE__1,138,APACHE,LZ_HOUSTON,,,,38720
APACHE_6389,6389,TNAPACHE__1,138,APACHE,LZ_HOUSTON,,,,38720
APCH_ESR1,0006,APCH_BES_B1,34.5,APCH_BES,LZ_NORTH,,,,154481
APCH_LD1,0004,APCH_BES_B1,34.5,APCH_BES,LZ_NORTH,,,,154481
APCH_LD2,0005,APCH_BES_B1,34.5,APCH_BES,LZ_NORTH,,,,154481
APCH_LN1,0001,APCH_BES_8,138,APCH_BES,LZ_NORTH,,,,154482
APLD1,0019,COTWIND_1_5,34.5,COTPLNS,LZ_WEST,,,,141506
APLD2,0020,COTWIND_1_5,34.5,COTPLNS,LZ_WEST,,,,141506
APLD3,0021,COTWIND_1_5,34.5,COTPLNS,LZ_WEST,,,,141506
APLD4,0022,COTWIND_1_5,34.5,COTPLNS,LZ_WEST,,,,141506
APOG_LD1,0017,APOGEE_W4,34.5,APOGEE,LZ_WEST,,,,143214
APOG_LD2,0021,APOGEE_W5,34.5,APOGEE,LZ_WEST,,,,143215
APOG_LD3,0027,APOGEE_W6,34.5,APOGEE,LZ_WEST,,,,143216
APOG_LD4,0005,APOGEE_W1,34.5,APOGEE,LZ_WEST,,,,143211
APOG_LN1,0001,APOGEE_5,345,APOGEE,LZ_WEST,,,,143222
APOG_UN1,0007,APOGEE_W1,34.5,APOGEE,LZ_WEST,,,,143211
APOG_UN2,0008,APOGEE_W2,34.5,APOGEE,LZ_WEST,,,,143212
APOG_UN3,0009,APOGEE_W3,34.5,APOGEE,LZ_WEST,,,,143213
APOG_UN4,0018,APOGEE_W4,34.5,APOGEE,LZ_WEST,,,,143214
APP1,0005,APPALOSA_W1,34.5,APPALOSA,LZ_WEST,,,,135731
APP2,0006,APPALOSA_W2,34.5,APPALOSA,LZ_WEST,,,,135732
APPA_LD1,0004,APPALOSA_L,34.5,APPALOSA,LZ_WEST,,,,135733
APPA_LN1,0001,APPALOSA_8,138,APPALOSA,LZ_WEST,,,,135734
APPLE_XFR1,CN15,APPLE_8,138,APPLE,LZ_WEST,APPLE_ESR_RN,,,1277
APTS_LD1,N14,APTXCITY_L1,34.5,APTXCITY,LZ_HOUSTON,,,,112012
APTS_LD2,N6,APTXCITY_L2,34.5,APTXCITY,LZ_HOUSTON,,,,112013
APTXCITY_AP1,AP1,APTXCITY_8,138,APTXCITY,LZ_HOUSTON,,,,112014
APTXCITY_AP2,AP2,APTXCITY_28,138,APTXCITY,LZ_HOUSTON,,,,112015
APTXCITY_U1,N8,APTXCITY_G1,13.8,APTXCITY,LZ_HOUSTON,,,,112011
AQLA_5008,5008,AQLA_WND_5,345,AQLA_WND,LZ_NORTH,,,,155895
AQLA_LD1,5005,AQLA_WND_W2,34.5,AQLA_WND,LZ_NORTH,,,,155892
AQLA_LD2,5001,AQLA_WND_W1,34.5,AQLA_WND,LZ_NORTH,,,,155891
AQLA_LN1,5003,AQLA_WND_5,345,AQLA_WND,LZ_NORTH,,,,155895
AQL_U1,5014,AQLA_WND_W1,34.5,AQLA_WND,LZ_NORTH,,,,155891
AQL_U2,5015,AQLA_WND_W2,34.5,AQLA_WND,LZ_NORTH,,,,155892
AQUI_LD1,0006,AQUILLA_W2,34.5,AQUILLA,LZ_NORTH,,,,163274
AQUI_LD2,0010,AQUILLA_W4,34.5,AQUILLA,LZ_NORTH,,,,163275
AQUI_LN1,0001,AQUILLA_5,345,AQUILLA,LZ_NORTH,AQUI_ALL,,,163273
AQUI_UN1,0008,AQUILLA_W12,34.5,AQUILLA,LZ_NORTH,,,,163271
AQUI_UN2,0007,AQUILLA_W2,34.5,AQUILLA,LZ_NORTH,,,,163274
AQUI_UN3,0012,AQUILLA_W34,34.5,AQUILLA,LZ_NORTH,,,,163272
AQUI_UN4,0011,AQUILLA_W4,34.5,AQUILLA,LZ_NORTH,,,,163275
ARAG_LD1,0005,ARAGORN_S1,34.5,ARAGORN,LZ_WEST,,,,135111
ARAG_LN1,0001,ARAGORN_8,138,ARAGORN,LZ_WEST,,,,135113
ARAG_UN1,0008,ARAGORN_S1,34.5,ARAGORN,LZ_WEST,,,,135111
ARANSASP_AG1,3040,ARANSASP2A,69,ARANSASP,LZ_SOUTH,,,,8427
ARANSASP_AG2,3035,ARANSASP2A,69,ARANSASP,LZ_SOUTH,,,,8427
ARANSASP_BS1,1061,ARANSASP2A,69,ARANSASP,LZ_SOUTH,,,,8427
ARANSASP_BS2,1062,ARANSASP2A,69,ARANSASP,LZ_SOUTH,,,,8427
ARAN_INGL,L160,ARANSASP4A,138,ARANSASP,LZ_SOUTH,,,,8430
ARCADIA_BUS2,B132,ARCADIA4B,138,ARCADIA,LZ_SOUTH,,,,8538
ARCADIA_LD1,LD02,ARCADIA4B,138,ARCADIA,LZ_SOUTH,,,,8538
ARCADIA_L_A,0028,ARCADIA4A,138,ARCADIA,LZ_SOUTH,,,,8496
ARCADIA_V_A,0002,ARCADIA4A,138,ARCADIA,LZ_SOUTH,,,,8496
ARCOCRN_8,BB1,ARCOCRN_8,138,CRNAR,LZ_WEST,,,,1201
ARCOCRN_8Y,1469,ARCOCRN_8,138,CRNAR,LZ_WEST,,,,1201
ARCOCRN_8Z,1468,ARCOCRN_8,138,CRNAR,LZ_WEST,,,,1201
ARGYLE1_8,BB1,ARGYLE1_8,138,ARGYL,LZ_NORTH,,,,1984
ARLGTON2_8V,2059,ARLGTON2_8,138,ARLNG,LZ_NORTH,,,,2252
ARLGTON2_8W,2057,ARLGTON1_8,138,ARLNG,LZ_NORTH,,,,2251
ARLGTON2_8X,0001,ARLGTON1_8,138,ARLNG,LZ_NORTH,,,,2251
ARMAND__138A,138A,ARMAND_X35B8,138,ARM,LZ_HOUSTON,,,,42120
ARMAND__138T,8030,ARMAND_X35B8,138,ARM,LZ_HOUSTON,,,,42120
ARMAND__138U,8025,ARMAND_X35B8,138,ARM,LZ_HOUSTON,,,,42120
ARMAND__138Z,138B,ARMAND_X35B8,138,ARM,LZ_HOUSTON,,,,42120
ARMD_LD1,N009,ARMD_SLR_S1,34.5,ARMD_SLR,LZ_NORTH,,,,154911
ARMD_LD2,N005,ARMD_SLR_S2,34.5,ARMD_SLR,LZ_NORTH,,,,154912
ARMD_LN1,N001,ARMD_SLR_8,138,ARMD_SLR,LZ_NORTH,,,,154913
ARMSTG1_8X,101,ARMSTG1_8,138,ARMST,LZ_NORTH,,,,2868
ARMSTG2_8V,105,ARMSTG2_8,138,ARMST,LZ_NORTH,,,,2869
ARMSTG2_8W,103,ARMSTG2_8,138,ARMST,LZ_NORTH,,,,2869
ARMSTRON_L_A,3756,ARMSTRON4A,138,ARMSTRON,LZ_SOUTH,,,,8899
ARM_L_A,0100,ARMAND_X35B8,138,ARM,LZ_HOUSTON,,,,42120
ARM_L_B,0101,ARMAND_X35B8,138,ARM,LZ_HOUSTON,,,,42120
ARPCM_K,BB1,ARPCHIPR_9,69,ARPCM,LZ_NORTH,,,,3152
ARPMN_K,7980,ARP_9,69,ARPMN,LZ_NORTH,,,,3153
ARROTT_L_A,5206,ARROTT2A,69,ARROTT,LZ_WEST,,,,6496
ARROWHEAD,3810,ARROWHEAD,138,AROWHEAD,LZ_WEST,,,,770
ARROZ_S039,E039,ARROZ4A,138,ARROZ,LZ_SOUTH,,,,8679
ARROZ_S259,L259,ARROZ4A,138,ARROZ,LZ_SOUTH,,,,8679
ARROZ_S289,S289,ARROZ4A,138,ARROZ,LZ_SOUTH,,,,8679
ARTHURST_8V,7910,ARTHURST_8,138,ARTHR,LZ_WEST,,,,1493
ARTHURST_8W,7909,ARTHURST_8,138,ARTHR,LZ_WEST,,,,1493
ARYSW_1005,1005,AROYA_8,138,ARYSW,LZ_WEST,,,,1001
ARYSW_1013,1013,AROYA_8,138,ARYSW,LZ_WEST,,,,1001
ARY_LD1,0005,ARY_BESS_B1,34.5,ARY_BESS,LZ_SOUTH,,,,164231
ARY_LN1,0001,ARY_BESS_5,345,ARY_BESS,LZ_SOUTH,ARY_BESS_RN,,,164232
ARY__U1,0006,ARY_BESS_B1,34.5,ARY_BESS,LZ_SOUTH,,,,164231
AR_8005,8005,ARCOLA_S82_8,138,AR,LZ_HOUSTON,,,,44030
AR_8010,8010,ARCOLA_S82_8,138,AR,LZ_HOUSTON,,,,44030
AR_TR1,TR1,ARCOLA_S82_8,138,AR,LZ_HOUSTON,,,,44030
AR_TR2,TR2,ARCOLA_S82_8,138,AR,LZ_HOUSTON,,,,44030
AR_TR3,TR3,ARCOLA_S82_8,138,AR,LZ_HOUSTON,,,,44030
ASHERTON4315,4315,ASHERTON4A,138,ASHERTON,LZ_SOUTH,,,,8283
ASHERTON4319,4319,ASHERTON4A,138,ASHERTON,LZ_SOUTH,,,,8283
ASHERTON4323,4323,ASHERTON2A,69,ASHERTON,LZ_SOUTH,,,,8280
ASHERTONL150,L150,SHAKEPOI4A,138,ASHERTON,LZ_SOUTH,MCLNSLR_RN,,,8209
ASHERTONL160,L160,ASHERTON4A,138,ASHERTON,LZ_SOUTH,,,,8283
ASHERTON_KH,1132,ASHERTON4A,138,ASHERTON,LZ_SOUTH,,,,8283
ASHERTON_LD0,LD01,ASHERTON2A,69,ASHERTON,LZ_SOUTH,,,,8280
ASHERTON_V_A,1131,ASHERTON4A,138,ASHERTON,LZ_SOUTH,,,,8283
ASHERTON_V_C,1061,ASHERTON2A,69,ASHERTON,LZ_SOUTH,,,,8280
ASHERT_CATAR,L717,CATARINA4A,138,CATARINA,LZ_SOUTH,,,,8970
ASHER_EB297,S297,ASHERTON2A,69,ASHERTON,LZ_SOUTH,,,,8280
ASHSW_CN1,CN1,ASHCREEK_8,138,ASHSW,LZ_NORTH,,,,3473
ASHSW_CN10,CN10,ASHCREEK_8,138,ASHSW,LZ_NORTH,PITSDD_UNIT1,,,3473
ASHSW_CN2,CN2,ASHCREEK_8,138,ASHSW,LZ_NORTH,,,,3473
ASN2_LD1,0007,ANSON2_S1,34.5,ANSON2,LZ_WEST,,,,182921
ASN2_LN1,0002,ANSON2_5,345,ANSON2,LZ_WEST,,,,182923
ASPERM9_KC,2158,ASPERMONT,69,ASPERM9,LZ_WEST,,,,755
ASPIRE_13,13,ASPIRE,345,ASPIRE,LZ_NORTH,ANCHOR_ALL,,,68011
ASPIRE_14,14,ASPIRE,345,ASPIRE,LZ_NORTH,,,,68011
ASPIRE_15,15,ASPIRE,345,ASPIRE,LZ_NORTH,,,,68011
ASPIRE_30,30,ASPIRE,345,ASPIRE,LZ_NORTH,,,,68011
ASPIRE_31,31,ASPIRE,345,ASPIRE,LZ_NORTH,,,,68011
ASPM_BS,B061,ASPM2A,69,ASPM,LZ_WEST,,,,6156
ASPM_KNS,4419,ASPM2A,69,ASPM,LZ_WEST,,,,6156
ASPM_KOY,8BB1,ASPM4A,138,ASPM,LZ_WEST,,,,6158
ASTRA_1006,1006,HWFWF_5,345,ASTRA,LZ_WEST,,,,141712
ASTRA_LOAD1,1003,HWFWF_W1,34.5,ASTRA,LZ_WEST,,,,141711
ASTRA_PL,1010,ASTRA_PL,34.5,ASTRA,LZ_WEST,,,,141714
ASTRA_UNIT1,1001,HWFWF_W1,34.5,ASTRA,LZ_WEST,,,,141711
ATBR_KP,5210,ATBR2A,69,ATBR,LZ_WEST,,,,6418
ATHNS_AG1,0002,ATHENS_8,138,ATHNS,LZ_NORTH,,,,3238
ATHNS_AG2,0200,ATHENS_8,138,ATHNS,LZ_NORTH,,,,3238
ATHNS_KL,BB1,ATHENS_9,69,ATHNS,LZ_NORTH,,,,3239
ATHNW_KG,9733,ATHNSNWT_8,138,ATHNW,LZ_NORTH,,,,3248
ATHNW_KH,9732,ATHNSNWT_8,138,ATHNW,LZ_NORTH,,,,3248
ATH_8001,8001,ATHENA_POI_8,138,ATH,LZ_HOUSTON,,,,46650
ATH_8002,8002,ATHENA_POI_8,138,ATH,LZ_HOUSTON,,,,46650
ATH_8003,8003,ATHENA_POI_8,138,ATH,LZ_HOUSTON,,,,46650
ATH_8004,8004,ATHENA_POI_8,138,ATH,LZ_HOUSTON,,,,46650
ATH_8005,8005,ATHENA_POI_8,138,ATH,LZ_HOUSTON,,,,46650
ATH_8007,8007,ATHENA_POI_8,138,ATH,LZ_HOUSTON,,,,46650
ATH_8008,8008,ATHENA_POI_8,138,ATH,LZ_HOUSTON,,,,46650
ATH_8009,8009,ATHENA_POI_8,138,ATH,LZ_HOUSTON,,,,46650
ATKINS_2193,2193,BRYN_ATK69,69,ATKINS,LZ_NORTH,,,,32864
ATKINS_2194,2194,BRYN_ATK69,69,ATKINS,LZ_NORTH,,,,32864
ATKINS_8001,8001,BRYN_ATK138,138,ATKINS,LZ_NORTH,,,,32862
ATKINS_8003,8003,BRYN_ATK138,138,ATKINS,LZ_NORTH,,,,32862
ATKINS_9123,9123,BRYN_ATK69,69,ATKINS,LZ_NORTH,,,,32864
ATKINS_9124,9124,BRYN_ATK69,69,ATKINS,LZ_NORTH,,,,32864
ATKINS_9127,9127,BRYN_ATK69,69,ATKINS,LZ_NORTH,,,,32864
ATKINS_9129,9129,BRYN_ATK69,69,ATKINS,LZ_NORTH,,,,32864
ATKINS_9130,9130,BRYN_ATK69,69,ATKINS,LZ_NORTH,,,,32864
ATKINS_EPS2,9112,BRYN_ATK69,69,ATKINS,LZ_NORTH,,,,32864
ATKINS_KKE,137,ATK_ATKINSG7,13.2,ATKINS,LZ_NORTH,,,,120013
ATKINS_KP,9101,BRYN_ATK69,69,ATKINS,LZ_NORTH,,,,32864
ATKINS_KR,9102,BRYN_ATK69,69,ATKINS,LZ_NORTH,,,,32864
ATNRN_KF,0011,AUSRNCH1_8,138,ATNRN,LZ_NORTH,,,,2378
ATNRN_KK,0020,AUSRNCH2_8,138,ATNRN,LZ_NORTH,,,,2377
ATSO_KC,5224,ATSO2A,69,ATSO,LZ_WEST,,,,6511
ATSO_KV,9BB2,SONR2A,69,SONR,LZ_WEST,,,,6513
AT_138B,138B,ATASCO_S66_8,138,AT,LZ_HOUSTON,,,,40130
AT_8010,8010,ATASCO_S66_8,138,AT,LZ_HOUSTON,,,,40130
AT_8020,8020,ATASCO_S66_8,138,AT,LZ_HOUSTON,,,,40130
AT_K,8035,ATASCO_S66_8,138,AT,LZ_HOUSTON,,,,40130
AT_TR3,TR3,ATASCO_S66_8,138,AT,LZ_HOUSTON,,,,40130
AUBREY,2110,AUBREY,138,ABR,LZ_NORTH,,,,652
AUBREY02,2109,AUBREY,138,ABR,LZ_NORTH,,,,652
AUBREY03,0002,AUBREY,138,ABR,LZ_NORTH,,,,652
AUDUBON_KH,2206,AUDUBON,138,AUDUBON,LZ_NORTH,,,,635
AURORA_KJ,2210,AURORA,138,AURORA,LZ_NORTH,,,,572
AURO_LD1,0005,AURO_SLR_S1,34.5,AURO_SLR,LZ_NORTH,,,,171021
AURO_UN1,0006,AURO_SLR_S1,34.5,AURO_SLR,LZ_NORTH,,,,171021
AUS,3815,AUSTDAM8,138,AUSTPL,LZ_SOUTH,,,,170022
AUSTIN1_1,BUS1,AUSTIN1,138,D2,LZ_SOUTH,,,,5005
AUSTIN1_2,BUS2,AUSTIN1,138,D2,LZ_SOUTH,,,,5005
AUSTIN1_KED,0788,AUSTIN1,138,D2,LZ_SOUTH,,,,5005
AUSTIN1_KT,0789,AUSTIN1,138,D2,LZ_SOUTH,,,,5005
AUSTIN_K,3356,AUSTNDAM,138,AUSTIN,LZ_SOUTH,,,,9139
AUSTIN_KN,8174,AUSTNDAM,138,AUSTIN,LZ_SOUTH,,,,9139
AUSTIN_KQ,8179,AUSTNDAM,138,AUSTIN,LZ_SOUTH,,,,9139
AUSTRO_KBJ,4552,L_AUSTRO5_1Y,345,AUSTRO,LZ_SOUTH,,AUSTRO,HB_SOUTH,7040
AUSTRO_KK,8301,AUSTROP,138,AUSTRO,LZ_SOUTH,,,,9328
AUSTRO_KY,8302,AUSTROP,138,AUSTRO,LZ_SOUTH,,,,9328
AUSTRO_KZ,4549,L_AUSTRO5_1Y,345,AUSTRO,LZ_SOUTH,,AUSTRO,HB_SOUTH,7040
AUS_AUSTING1,4833,AUS_AUSTING1,11.5,AUSTPL,LZ_SOUTH,,,,170021
AUS_AUSTING2,4835,AUS_AUSTING1,11.5,AUSTPL,LZ_SOUTH,,,,170021
AUS_SS1XFMR,1157,AUS_AUSTING1,11.5,AUSTPL,LZ_SOUTH,,,,170021
AUTO_CBEC1,0800,CBEC_1_8,138,CBEC,LZ_SOUTH,,,,110797
AUTO_CBEC2,0200,CBEC_1_8,138,CBEC,LZ_SOUTH,,,,110797
AUTO_DIVIDE,0021,L_DIVIDE5_1Y,345,DIVIDE,LZ_WEST,CAPRIDG4_CR4,,,76090
AUTO_EPS_14,3814,AUSTDAM8,138,AUSTPL,LZ_SOUTH,AUSTPL_ALL,,,170022
AUTO_EPS_275,BB2E,MTCK1_9,69,MCSES,LZ_NORTH,,,,2416
AUTO_EPS_278,BB1W,MTCK_W8,138,MCSES,LZ_NORTH,,,,2411
AUTO_EPS_390,0BB3,STRYKERND_8,138,SCSES,LZ_NORTH,SC2SES_UNIT1,,,3122
AUTO_EPS_465,6390,TNAPACHE__1,138,APACHE,LZ_HOUSTON,,,,38720
AUTO_EPS_466,6391,TNAPACHE__1,138,APACHE,LZ_HOUSTON,UCC_COG_PUN2,,,38720
AUTO_EPS_508,0008,WOODWRD1_1_8,138,WOODWRD1,LZ_WEST,,,,130432
AUTO_EPS_6,0004,AMISTAD8,138,AMISTAD,LZ_SOUTH,,,,5798
AUTO_GASCCR,2952,L_GASCCR5_1Y,345,GASCCR,LZ_WEST,GOA_GOATWIND,,,76030
AUTO_QALSW1,1500,QALSW_1_5,345,QALSW,LZ_WEST,,,,131247
AUTO_QALSW2,0900,QALSW_1_5,345,QALSW,LZ_WEST,,,,131247
AUTO_TRES,2BB1,TRSES_UNIT6,22,TRSES,LZ_NORTH,TRSES_UNIT6,,,120151
AUX1_LD,2010,STP_STP_G1,25,STP,LZ_SOUTH,,,,110351
AUX2_LD,2005,STP_STP_G2,25,STP,LZ_SOUTH,,,,110352
AUXFMR4,0007,OLIN_OLING_4,13.8,OLINGR,LZ_NORTH,,,,150084
AU_K,0001,ANBUSH_X08B8,138,AU,LZ_HOUSTON,,,,40100
AU_KV,8025,ANBUSH_X08B8,138,AU,LZ_HOUSTON,,,,40100
AU_KVT,8030,ANBUSH_X08B8,138,AU,LZ_HOUSTON,,,,40100
AVANZADAS0H6,S0H6,AVANZADA7A,345,AVANZADA,LZ_SOUTH,OUTP_SLR_RN,,,80235
AVAN_PS10_EB,PS10,AVANZADA7A,345,AVANZADA,LZ_SOUTH,,,,80235
AVAN_PS11_EB,PS11,AVANZADA7A,345,AVANZADA,LZ_SOUTH,,,,80235
AVERRAT3,0925,L_AVERRA8_1Y,138,AVERRA,LZ_SOUTH,,,,7534
AVERRA_KKL,0003,L_AVERRA8_1Y,138,AVERRA,LZ_SOUTH,,,,7534
AVERRA_KN,0001,L_AVERRA8_1Y,138,AVERRA,LZ_SOUTH,,,,7534
AVIATOR,0010,L_DIVIDE5_1Y,345,DIVIDE,LZ_WEST,AVIAT_ALL,,,76090
AVIATOR_DEW5,5553,AVIATOR_5,345,AVIATOR,LZ_WEST,,,,182727
AVIL_BES1,0006,AVIL_ESS_B1,34.5,AVIL_ESS,LZ_WEST,,,,136501
AVIL_LD1,0004,AVIL_ESS_B1,34.5,AVIL_ESS,LZ_WEST,,,,136501
AVLIN_6487,6487,TNALVIN___1,138,ALVIN,LZ_HOUSTON,,,,39030
AVR_M,0002,VON_ROSE,345,BRAUNIG,LZ_SOUTH,BRA_AVR_CST1,BRAUNIG,HB_SOUTH,5475
AV_8005,8005,ALVIN_05T2_8,138,AV,LZ_HOUSTON,,,,42072
AV_8015,8015,ALVIN_05T2_8,138,AV,LZ_HOUSTON,,,,42072
AV_8020,8020,ALVIN_26T3_8,138,AV,LZ_HOUSTON,,,,42073
AV_8030,8030,ALVIN_26T3_8,138,AV,LZ_HOUSTON,,,,42073
AV_8035,8035,ALVIN_26TP_8,138,AV,LZ_HOUSTON,,,,48173
AV_8050,8050,ALVIN_05TP_8,138,AV,LZ_HOUSTON,,,,48172
AV_L_C_U1,3331,AVIATOR_W1,34.5,AVIATOR,LZ_WEST,,,,182721
AV_L_C_U2,4441,AVIATOR_W2,34.5,AVIATOR,LZ_WEST,,,,182723
AV_UNIT1,0011,AVIATOR_W1,34.5,AVIATOR,LZ_WEST,,,,182721
AV_UNIT2,0022,AVIATOR_W2,34.5,AVIATOR,LZ_WEST,,,,182723
AXLD,A3,SPPKM_CTA,13.8,SPPKM,LZ_WEST,,,,180441
AZALA_LXFR1,CN9,AZALEA_8,138,AZALA,LZ_WEST,,,,10061
AZALA_LXFR2,CN10,AZALEA_8,138,AZALA,LZ_WEST,,,,10061
AZALA_LXFR3,CN11,AZALEA_8,138,AZALA,LZ_WEST,,,,10061
AZLES_K,5584,AZLE1_8,138,AZLES,LZ_NORTH,,,,2062
AZLES_KG,5585,AZLE1_8,138,AZLES,LZ_NORTH,,,,2062
AZLES_XFMR3,CN5,AZLE1_8,138,AZLES,LZ_NORTH,,,,2062
AZSP_LD1,0004,AZSP_SLR_S1,34.5,AZSP_SLR,LZ_NORTH,,,,120871
AZSP_LN1,0001,AZSP_SLR_8,138,AZSP_SLR,LZ_NORTH,,,,120872
AZSP_S1,0005,AZSP_SLR_S1,34.5,AZSP_SLR,LZ_NORTH,,,,120871
AZURE_BES1,BES1,AZURE_B1,34.5,AZURE,LZ_WEST,,,,143315
AZURE_S2,S2,AZURE_S2,34.5,AZURE,LZ_WEST,,,,143312
AZURE_SL1,1001,AZURE_S1,34.5,AZURE,LZ_WEST,,,,143311
AZURE_SL2,2001,AZURE_S2,34.5,AZURE,LZ_WEST,,,,143312
AZURE_SOLAR1,S1,AZURE_S1,34.5,AZURE,LZ_WEST,,,,143311
AZURE_TLINE,3001,AZURE_5,345,AZURE,LZ_WEST,,,,143313
AZ_138A,138A,AIRPRO_POI_8,138,AZ,LZ_HOUSTON,,,,40070
AZ_138B,138B,AIRPRO_POI_8,138,AZ,LZ_HOUSTON,,,,40070
AZ_138C_EB,138C,AZ_1_8,138,AZ,LZ_HOUSTON,AZ_ALL,,,110975
AZ_8050,8050,AIRPRO_POI_8,138,AZ,LZ_HOUSTON,,,,40070
AZ_8051,8051,AIRPRO_POI_8,138,AZ,LZ_HOUSTON,,,,40070
AZ_8052,8052,AIRPRO_POI_8,138,AZ,LZ_HOUSTON,,,,40070
AZ_8053,8053,AIRPRO_POI_8,138,AZ,LZ_HOUSTON,,,,40070
AZ_8054,8054,AIRPRO_POI_8,138,AZ,LZ_HOUSTON,,,,40070
AZ_8055,8055,AIRPRO_POI_8,138,AZ,LZ_HOUSTON,,,,40070
AZ_8056,8056,AIRPRO_POI_8,138,AZ,LZ_HOUSTON,,,,40070
AZ_8057,8057,AIRPRO_POI_8,138,AZ,LZ_HOUSTON,,,,40070
AZ_8058,8058,AIRPRO_POI_8,138,AZ,LZ_HOUSTON,,,,40070
AZ_ABC3_EB,8020,AIRPRO_POI_8,138,AZ,LZ_HOUSTON,,,,40070
AZ_KI,8025,AIRPRO_POI_8,138,AZ,LZ_HOUSTON,,,,40070
AZ_KV,8005,AIRPRO_POI_8,138,AZ,LZ_HOUSTON,,,,40070
B001,B001,ELDO2A,69,ELDO,LZ_WEST,,,,6505
B011,011,BUCK_H_5,345,BUCSW,LZ_NORTH,,,,3424
B012,012,BUCK_H_5,345,BUCSW,LZ_NORTH,,,,3424
B061,B061,STMBOAT2A,69,STMBOAT,LZ_WEST,,,,60332
B062,B062,STMBOAT2A,69,STMBOAT,LZ_WEST,,,,60332
B1,12,WHIT_RVR,345,WHIT_RVR,LZ_WEST,,WHIT_RVR,HB_PAN,23922
B101,B101,COLETAP4A,138,COLETAP,LZ_WEST,,,,6347
B104,B104,DOFFITP4A,138,DOFFING,LZ_SOUTH,,,,80294
B131,B101,ROWE4A,138,JAMESROW,LZ_SOUTH,,,,8041
B143,L143,GAUSS7A,345,GAUSS,LZ_WEST,,,,60700
B1CN,B1CN,BR_ARROW_S1,34.5,BR_ARROW,LZ_NORTH,,,,120441
B1_LD1,0090,VERDE_CIRCLE,138,B1,LZ_SOUTH,,,,5466
B1_LD2,0200,VERDE_CIRCLE,138,B1,LZ_SOUTH,,,,5466
B2,1,WHIT_RVR,345,WHIT_RVR,LZ_WEST,,WHIT_RVR,HB_PAN,23922
B293,S293,EDITHCLA7A,345,EDITHCLA,LZ_WEST,,,,60500
B2CN,B2CN,BR_ARROW_S1,34.5,BR_ARROW,LZ_NORTH,,,,120441
B381,L381,RAILROAD_DC,138,RAILROAD,LZ_SOUTH,,,,79604
B4_BS1,0102,CHAVANEA,138,B4,LZ_SOUTH,,,,5085
B4_BS2,1381,CHAVANEA,138,B4,LZ_SOUTH,,,,5085
B4_LXFMR1,0905,CHAVANEA,138,B4,LZ_SOUTH,,,,5085
B832,S832,RAILROAD_DC,138,RAILROAD,LZ_SOUTH,,,,79604
B9L1,LDT1,HELIOSCR7A,345,HELIOSCR,LZ_WEST,,,,60007
BAC_0926,0926,BAC_8,138,BAC,LZ_HOUSTON,,,,111131
BAC_138A,138A,BAC_8,138,BAC,LZ_HOUSTON,,,,111131
BADERSUB92,LD2,BADERSUB9,69,BADER,LZ_SOUTH,,,,5810
BADERSUB9Y,BB1,BADERSUB9,69,BADER,LZ_SOUTH,,,,5810
BAFFIN_0012,0012,BAFFIN_5,345,BAFFIN,LZ_SOUTH,,,,160298
BAFFIN_UNIT1,0002,BAFFIN_UNIT1,34.5,BAFFIN,LZ_SOUTH,,,,160296
BAFFIN_UNIT2,0005,BAFFIN_UNIT2,34.5,BAFFIN,LZ_SOUTH,,,,160297
BAGWELL1_9X,5258,BAGWELL1_9,69,BAGWL,LZ_NORTH,,,,1785
BAHIA1_EB,0003,BAHIA_9,69,BAHIA,LZ_WEST,,,,9478
BAHIA2_EB,0004,BAHIA_9,69,BAHIA,LZ_WEST,,,,9478
BAIRDWND0005,0005,BAIRDWND_5,345,BAIRDWND,LZ_NORTH,BAIRDWND_ALL,,,151265
BAIRD_L_A,4429,BAIRD2A,69,BAIRD,LZ_WEST,,,,6306
BAKESW4541,4541,L_BAKERS5_1Y,345,BAKESW,LZ_WEST,,,,76002
BAKESW4551,4551,L_BAKERS5_1Y,345,BAKESW,LZ_WEST,,,,76002
BAKESWL200,L200,L_BAKERS5_1Y,345,BAKESW,LZ_WEST,BOOTLEG_UN1,,,76002
BAKE_EC,0004,BAKE_SLR_5,345,BAKE_SLR,LZ_NORTH,,,,144569
BAKE_LD1,0009,BAKE_SLR_S1,34.5,BAKE_SLR,LZ_NORTH,,,,144561
BAKE_LD2,0013,BAKE_SLR_S2,34.5,BAKE_SLR,LZ_NORTH,,,,144562
BAKE_UN1,0002,BAKE_SLR_S1,34.5,BAKE_SLR,LZ_NORTH,,,,144561
BAKE_UN2,0003,BAKE_SLR_S2,34.5,BAKE_SLR,LZ_NORTH,,,,144562
BAKKE_EB1,1005,BAKKE_8,138,BAKKE,LZ_WEST,,,,1280
BAKKE_EB2,1003,BAKKE_8,138,BAKKE,LZ_WEST,,,,1280
BALEYVL,6900,BAILEYVILLE,69,BALYVILL,LZ_NORTH,,,,78
BALEYVL_1,6901,BAILEYVILLE,69,BALYVILL,LZ_NORTH,,,,78
BALLINGE_KM,0001,BALLINGE4A,138,BALLINGE,LZ_WEST,,,,6340
BALLINGE_V_A,8BB1,BALLINGE4A,138,BALLINGE,LZ_WEST,,,,6340
BALLINGE_V_B,9BB1,BALLINGE2A,69,BALLINGE,LZ_WEST,,,,6338
BALL_PARK_B,0802,BALL_PRK,138,Z4,LZ_SOUTH,,,,5011
BALL_PARK_C,0803,BALL_PRK,138,Z4,LZ_SOUTH,,,,5011
BALSORA_8X,0005,BALSORA_8,138,BLSRA,LZ_NORTH,,,,1598
BANDERA_A,0820,BANDERA,138,O2,LZ_SOUTH,,,,5020
BANDERA_B,0821,BANDERA,138,O2,LZ_SOUTH,,,,5020
BANDERA_B2,BUS2,BANDERA,138,O2,LZ_SOUTH,,,,5020
BANDERA_BA,BS1A,BANDERA,138,O2,LZ_SOUTH,,,,5020
BANDERA_BB,BS1B,BANDERA,138,O2,LZ_SOUTH,,,,5020
BANDERA_C,0822,BANDERA,138,O2,LZ_SOUTH,,,,5020
BANDER_V_A,8301,L_BANDER8_1Y,138,BANDER,LZ_SOUTH,,,,7438
BANDRA2_8Y,6763,BANDRA2_8,138,BNDRA,LZ_NORTH,,,,2654
BANDRA2_8Z,6762,BANDRA1_8,138,BNDRA,LZ_NORTH,,,,2653
BANGS_XFMR2,CN54,BANGS_8,138,BANGS,LZ_NORTH,,,,1671
BANQUETE_L_A,3070,BANQUETE2A,69,BANQUETE,LZ_SOUTH,,,,8888
BAR1,2,BLUEACRE,138,BLUEACRE,LZ_WEST,,,,23857
BAR2,8,BLUEACRE,138,BLUEACRE,LZ_WEST,,,,23857
BARCLAY,2220,BARCLAY,69,BARCLAY,LZ_NORTH,,,,69
BARHIL__138T,8040,BARHIL_X59B8,138,BIL,LZ_HOUSTON,,,,40150
BARHIL__138U,8035,BARHIL_X59B8,138,BIL,LZ_HOUSTON,,,,40150
BARHIL__138Z,138B,BARHIL_X59B8,138,BIL,LZ_HOUSTON,,,,40150
BARKER73802T,8020,BARKER_R78_8,138,BAR,LZ_HOUSTON,,,,44051
BARKER73802U,8010,BARKER_R78_8,138,BAR,LZ_HOUSTON,,,,44051
BARKER73802X,0002,BARKER73T3_8,138,BAR,LZ_HOUSTON,,,,44052
BARL_V_A,8BB1,BARL4A,138,BARL,LZ_WEST,,,,6655
BARL_V_C,9BB1,BARL2A,69,BARL,LZ_WEST,,,,6653
BARNHCV_K,5599,BARNHART2A,69,BARNHART,LZ_WEST,,,,6537
BARNHC_B061,B061,BARNHCV2A,69,BARNHCV,LZ_WEST,,,,6532
BARNW_E8,5000,BARSTOWNW_8,138,BARNW,LZ_WEST,,,,1086
BARN_L_A,5240,BARNHRT2A,69,BARNHRT,LZ_WEST,,,,6530
BARROW_LINE,0001,BARROW3,138,BARROW,LZ_WEST,BARROW_ALL,,,134043
BARROW_LOAD1,0009,BARROW8,34.5,BARROW,LZ_WEST,,,,134041
BARROW_LOAD2,0006,BARROW5,34.5,BARROW,LZ_WEST,,,,134042
BARROW_UNIT1,00U1,BARROW8,34.5,BARROW,LZ_WEST,,,,134041
BARROW_UNIT2,00U2,BARROW5,34.5,BARROW,LZ_WEST,,,,134042
BARRY,3820,BARRY,69,BARRYBC,LZ_NORTH,,,,193
BARRY1_9W,0366,BARRY1_9,69,BARRY,LZ_NORTH,,,,3471
BARRY1_9X,0365,BARRY1_9,69,BARRY,LZ_NORTH,,,,3471
BARSW_CN12,CN12,BARRNCH_8,138,BARSW,LZ_WEST,,,,11235
BARSW_CN2,CN2,BARRNCH_8,138,BARSW,LZ_WEST,,,,11235
BARSW_CN5,CN5,BARRNCH_8,138,BARSW,LZ_WEST,,,,11235
BARSW_CN8,CN8,BARRNCH_8,138,BARSW,LZ_WEST,,,,11235
BARTLETT_AG1,0150,BARTLETT,69,BARTLETT,LZ_NORTH,,,,118
BARTON,3850,BARTON,138,BARTON,LZ_SOUTH,,,,9158
BARTONW,8321,BARTON,138,BARTON,LZ_SOUTH,,,,9158
BARTONX,8325,BARTON,138,BARTON,LZ_SOUTH,,,,9158
BARTONY,8326,BARTON,138,BARTON,LZ_SOUTH,,,,9158
BARTONZ,8327,BARTON,138,BARTON,LZ_SOUTH,,,,9158
BARTON_K,0004,BARTON,138,BARTON,LZ_SOUTH,,,,9158
BART_LD1,0005,BART_SLR_S1,34.5,BART_SLR,LZ_NORTH,,,,121221
BART_LN1,0001,BART_SLR_8,138,BART_SLR,LZ_NORTH,BART_SLR_RN,,,121222
BARW_LD1,0007,BR_ARROW_S1,34.5,BR_ARROW,LZ_NORTH,,,,120441
BARW_LD2,0009,BR_ARROW_S2,34.5,BR_ARROW,LZ_NORTH,,,,120442
BARW_LN1,0001,BR_ARROW_5,345,BR_ARROW,LZ_NORTH,,,,120445
BARW_UNIT1,0011,BR_ARROW_S1,34.5,BR_ARROW,LZ_NORTH,,,,120441
BARW_UNIT2,0012,BR_ARROW_S2,34.5,BR_ARROW,LZ_NORTH,,,,120442
BAR_U1,0008,BART_SLR_S1,34.5,BART_SLR,LZ_NORTH,,,,121221
BASF____138A,0004,BASF___POI_8,138,BSF,LZ_HOUSTON,,,,42150
BASF____138N,8206,BASF___POI_8,138,BSF,LZ_HOUSTON,,,,42150
BASF____138O,8204,BASF___POI_8,138,BSF,LZ_HOUSTON,,,,42150
BASF____138P,8202,BASF___POI_8,138,BSF,LZ_HOUSTON,,,,42150
BASF____138Q,8199,BASF___POI_8,138,BSF,LZ_HOUSTON,,,,42150
BASF____138Z,0002,BASF___POI_8,138,BSF,LZ_HOUSTON,,,,42150
BASIL_L527,L527,BASIL4A,138,BASIL,LZ_SOUTH,,,,8731
BASIL_L528,L528,BASIL4A,138,BASIL,LZ_SOUTH,,,,8731
BASIL_S521,S521,BASIL4A,138,BASIL,LZ_SOUTH,TUL_SLR_ALL,,,8731
BASIN_B131,B131,BASIN4A,138,BASIN,LZ_WEST,,,,60415
BASIN_L933,L933,BASIN4A,138,BASIN,LZ_WEST,,,,60415
BASTEN_KMN,G1L,BAST_GTG1100,18,BASTEN,LZ_SOUTH,,,,170181
BASTEN_KMS,ST1L,BASTE_ST0100,18,BASTEN,LZ_SOUTH,,,,170183
BASTEN_KTP,G2L,BAST_GTG2100,18,BASTEN,LZ_SOUTH,,,,170182
BATCAVE_8,SW2,BATCAVE_8,138,BATCAVE,LZ_SOUTH,,,,183272
BATCAVE_T1_L,T1_L,BATCAVE_BES1,34.5,BATCAVE,LZ_SOUTH,,,,183271
BATESVILLE,0004,PALODUROSW8,138,PALODURO,LZ_SOUTH,,,,5866
BATESVL_AG1,5849,BATESVILESW9,69,BATESVL,LZ_SOUTH,,,,5849
BATESVL_KQ,5851,BATESVILESW8,138,BATESVL,LZ_SOUTH,,,,5851
BATES_3806,3806,BATES4A,138,BATES,LZ_SOUTH,,,,8392
BATES_3807,3807,BATES4A,138,BATES,LZ_SOUTH,,,,8392
BATES_V_A,1131,BATES4A,138,BATES,LZ_SOUTH,,,,8392
BAYCITYSUB9Y,1650,BAYCITYSUB9,69,BAYCTYS,LZ_SOUTH,,,,5560
BAYCITY_2644,2644,BAY_CITY4A,138,BAY_CITY,LZ_SOUTH,,,,8113
BAYCITY_L705,L705,BAY_CITY4A,138,BAY_CITY,LZ_SOUTH,,,,8113
BAYCTYS_AG1,5560,BAYCITYSUB9,69,BAYCTYS,LZ_SOUTH,,,,5560
BAYOULC_8X,0036,BYULOCS,138,BAYLC,LZ_NORTH,,,,6727
BAYOU___138V,0027,BAYOU__POI_8,138,BYU,LZ_HOUSTON,,,,42160
BAYOU___138W,0026,BAYOU__POI_8,138,BYU,LZ_HOUSTON,,,,42160
BAY_CITY_KVP,2466,BAY_CITY4A,138,BAY_CITY,LZ_SOUTH,BAYC_BESS_RN,,,8113
BAY_CITY_KX,1132,BAY_CITY4A,138,BAY_CITY,LZ_SOUTH,,,,8113
BAY_CITY_KZL,1131,BAY_CITY4A,138,BAY_CITY,LZ_SOUTH,,,,8113
BAY_CITY_L_B,2467,BAY_CITY4A,138,BAY_CITY,LZ_SOUTH,,,,8113
BA_138C,138C,BAMMEL__B138,138,BA,LZ_HOUSTON,,,,45651
BA_8050,8050,BAMMEL__B138,138,BA,LZ_HOUSTON,,,,45651
BA_8055,8055,BAMMEL__B138,138,BA,LZ_HOUSTON,,,,45651
BA_K,138A,BAMMEL__B138,138,BA,LZ_HOUSTON,,,,45651
BA_KA,8020,BAMMEL__B138,138,BA,LZ_HOUSTON,,,,45651
BA_KD,8015,BAMMEL__B138,138,BA,LZ_HOUSTON,,,,45651
BA_KH,138B,BAMMEL__B138,138,BA,LZ_HOUSTON,,,,45651
BA_KP,8010,BAMMEL__B138,138,BA,LZ_HOUSTON,,,,45651
BA_KR,8025,BAMMEL__B138,138,BA,LZ_HOUSTON,,,,45651
BA_KRR,8035,BAMMEL__B138,138,BA,LZ_HOUSTON,,,,45651
BB,301,L_ECMORN8_1Y,138,ECMORN,LZ_SOUTH,,,,7463
BB1,0003,RAT_SNAKE_5,345,RRDSW,LZ_NORTH,,,,3399
BB17522,0011,RAYROBRT_8,138,RAYSW,LZ_NORTH,,,,11710
BB17532,0010,RAYROBRT_8,138,RAYSW,LZ_NORTH,,,,11710
BB1E,13,ROMNEY1_E,345,ROMNEY,LZ_NORTH,,,,68020
BB1EB,BB1,BURWICK_5,345,BURSW,LZ_WEST,,,,1445
BB1N,CN1,HAGGRTY_8,138,HGRSW,LZ_NORTH,,,,12677
BB1S,CN2,HAGGRTY_8,138,HGRSW,LZ_NORTH,,,,12677
BB1W,1,ROMNEY1_W,345,ROMNEY,LZ_NORTH,,,,68010
BB1W_EB,BB1W,W_KRUM_5,345,KRWSW,LZ_NORTH,,,,1730
BB1_REATA,12,REATA,345,REATA,LZ_NORTH,,,,68051
BB2,0004,RAT_SNAKE_5,345,RRDSW,LZ_NORTH,,,,3399
BB2E,26,ROMNEY2_E,345,ROMNEY,LZ_NORTH,,,,68060
BB2EB,BB2,BURWICK_5,345,BURSW,LZ_WEST,,,,1445
BB2W,14,ROMNEY2_W,345,ROMNEY,LZ_NORTH,,,,68050
BB2_EB1,BB2,SANDLAKE_8,138,SLKSW,LZ_WEST,,,,11097
BB2_PV1,S2P1,CAPRIDG4_S1,34.5,CAPRIDG4,LZ_WEST,,,,183071
BB2_PV2,S2P2,CAPRIDG4_S2,34.5,CAPRIDG4,LZ_WEST,,,,183072
BB2_REATA,11,REATA,345,REATA,LZ_NORTH,,,,68051
BB3,6901,RICHCLLN1_8,138,RCLNS,LZ_NORTH,,,,2686
BB3EB,BB3,BURWICK_5,345,BURSW,LZ_WEST,,,,1445
BB4,6909,RICHCLLN1_8,138,RCLNS,LZ_NORTH,,,,2686
BB5,6904,RICHCLLN1_8,138,RCLNS,LZ_NORTH,,,,2686
BBEE_EB,BB2E,W_KRUM_5,345,KRWSW,LZ_NORTH,,,,1730
BBES,CN15,PINOAK_8,138,POKSW,LZ_NORTH,,,,3510
BBE_EB,BBE,FULLERTON_8,138,FLRSW,LZ_WEST,,,,1272
BBGRAVEL_K,2461,L_BBGRAV9_1Y,69,BBGRAV,LZ_SOUTH,,,,78924
BBMN2_0002,0002,BBRN_OPN_8,138,BBMN2,LZ_NORTH,,,,3509
BBMN2_0454,0454,BBRN_OPN_8,138,BBMN2,LZ_NORTH,,,,3509
BBMN2_0455,0455,BBRN_OPN_8,138,BBMN2,LZ_NORTH,,,,3509
BBN_ARYSW,BBN,AROYA_8,138,ARYSW,LZ_WEST,,,,1001
BBN_PRSSW,BBN,PARIS_SW1_8,138,PRSSW,LZ_NORTH,,,,1693
BBPV,BBS1,CAPRIDG4_CR4,34.5,CAPRIDG4,LZ_WEST,,,,180758
BBP_1,8055,BIGBAY_POI_8,138,BBP,LZ_HOUSTON,,,,42180
BBP_138B,138B,BIGBAY_POI_8,138,BBP,LZ_HOUSTON,,,,42180
BBP_2,138A,BIGBAY_POI_8,138,BBP,LZ_HOUSTON,,,,42180
BBP_BYU_G8,8005,BIGBAY_POI_8,138,BBP,LZ_HOUSTON,,,,42180
BBSES_0BB1,0BB1,BIGBRNM2_8,138,BBSES,LZ_NORTH,,,,3507
BBSES_3062,3062,BIGBRNE_5,345,BBSES,LZ_NORTH,,BBSES,HB_NORTH,3380
BBSES_3066,3066,BIGBRNW_5,345,BBSES,LZ_NORTH,,BBSES,HB_NORTH,3381
BBSES_3070,3070,BIGBRNW_5,345,BBSES,LZ_NORTH,,BBSES,HB_NORTH,3381
BBSES_3074,3074,BIGBRNW_5,345,BBSES,LZ_NORTH,,BBSES,HB_NORTH,3381
BBSES_3078,3078,BIGBRNE_5,345,BBSES,LZ_NORTH,,BBSES,HB_NORTH,3380
BBSES_3082,3082,BIGBRNE_5,345,BBSES,LZ_NORTH,,BBSES,HB_NORTH,3380
BBSES_KL,BB2,BIGBRNW_5,345,BBSES,LZ_NORTH,,BBSES,HB_NORTH,3381
BBSES_KW,BB1,BIGBRNE_5,345,BBSES,LZ_NORTH,,BBSES,HB_NORTH,3380
BBS_ARYSW,BBS,AROYA_8,138,ARYSW,LZ_WEST,,,,1001
BBS_PRSSW,BBS,PARIS_SW1_8,138,PRSSW,LZ_NORTH,,,,1693
BBW_EB,BBW,FULLERTON_8,138,FLRSW,LZ_WEST,,,,1272
BBYSW_CN12,CN12,BRADBERRY_8,138,BBYSW,LZ_NORTH,,,,3064
BBYSW_CN16,CN16,BRADBERRY_8,138,BBYSW,LZ_NORTH,,,,3064
BBYSW_CN7,CN7,BRADBERRY_8,138,BBYSW,LZ_NORTH,,,,3064
BBYSW_PS4,CN4,BRADBERRY_8,138,BBYSW,LZ_NORTH,,,,3064
BBYSW_XFMR1,CN9,BRADBERRY_8,138,BBYSW,LZ_NORTH,,,,3064
BBYSW_XFMR2,CN18,BRADBERRY_8,138,BBYSW,LZ_NORTH,,,,3064
BB_1,5,SUNOCORC,138,SUNOCORC,LZ_NORTH,,,,6805
BB_2,6,SUNOCORC,138,SUNOCORC,LZ_NORTH,,,,6805
BB_A,11,MNTLB2RC,69,MNTLB2RC,LZ_NORTH,,,,6933
BB_B,13,MNTLB2RC,69,MNTLB2RC,LZ_NORTH,,,,6933
BB_RG1,0007,RIO_GRANDE,138,RIO_GRDE,LZ_SOUTH,,,,59550
BB_RG2,0009,RIO_GRANDE,138,RIO_GRDE,LZ_SOUTH,,,,59550
BB_RG3,0003,RIO_GRANDE,138,RIO_GRDE,LZ_SOUTH,,,,59550
BB_SD_1,0001,STRAND,138,STRAND,LZ_SOUTH,,,,59430
BCAN,BCAN,BRTN6843,138,BRTNSSRC,LZ_NORTH,,,,6843
BCATWIND_1,1,BCAT_WND1,34.5,BCATWIND,LZ_WEST,,,,140401
BCBW,BCBW,BRTN6843,138,BRTNSSRC,LZ_NORTH,,,,6843
BCEB29,CN29,BRUSHYCRK_8,138,BCRSW,LZ_SOUTH,,,,3541
BCESW_0003,0003,BELL_E_5,345,BCESW,LZ_NORTH,,,,3687
BCESW_0006,0006,BELL_E_5,345,BCESW,LZ_NORTH,,,,3687
BCESW_0011,0011,BELL_E_5,345,BCESW,LZ_NORTH,,,,3687
BCESW_0014,0014,BELL_E_5,345,BCESW,LZ_NORTH,,,,3687
BCESW_0022,0022,BELL_E_5,345,BCESW,LZ_NORTH,,,,3687
BCESW_CN5,CN5,BELL_E_5,345,BCESW,LZ_NORTH,CHIL_SLR,,,3687
BCESW_CN7,CN7,BELL_E_5,345,BCESW,LZ_NORTH,,,,3687
BCESW_NBUS,0BBN,BELL_E_5,345,BCESW,LZ_NORTH,,,,3687
BCESW_SBUS,0BBS,BELL_E_5,345,BCESW,LZ_NORTH,,,,3687
BCH1,0001,BCH_8,138,BCH,LZ_HOUSTON,BCH_RN,,,112597
BCH2,0024,BCH_8,138,BCH,LZ_HOUSTON,,,,112597
BCHSPG1_8W,7122,BCHSPG1_8,138,BSPRG,LZ_NORTH,,,,2777
BCHSPG1_8X,7121,BCHSPG1_8,138,BSPRG,LZ_NORTH,,,,2777
BCH_LD1,0012,BCH_G1,13.8,BCH,LZ_HOUSTON,,,,112591
BCH_LD2,0014,BCH_G2,13.8,BCH,LZ_HOUSTON,,,,112592
BCH_LD3,0016,BCH_G3,13.8,BCH,LZ_HOUSTON,,,,112593
BCH_LD4,0018,BCH_G4,13.8,BCH,LZ_HOUSTON,,,,112594
BCH_LD5,0020,BCH_G5,13.8,BCH,LZ_HOUSTON,,,,112595
BCH_LD6,0022,BCH_G6,13.8,BCH,LZ_HOUSTON,,,,112596
BCH_UN1,0013,BCH_G1,13.8,BCH,LZ_HOUSTON,,,,112591
BCH_UN2,0015,BCH_G2,13.8,BCH,LZ_HOUSTON,,,,112592
BCH_UN3,0017,BCH_G3,13.8,BCH,LZ_HOUSTON,,,,112593
BCH_UN4,0019,BCH_G4,13.8,BCH,LZ_HOUSTON,,,,112594
BCH_UN5,0021,BCH_G5,13.8,BCH,LZ_HOUSTON,,,,112595
BCH_UN6,0023,BCH_G6,13.8,BCH,LZ_HOUSTON,,,,112596
BCH_UN7,247,BCH_N7,13.8,BCH,LZ_HOUSTON,,,,113031
BCH_UN8,248,BCH_N8,13.8,BCH,LZ_HOUSTON,,,,113032
BCK_1,0001,BCK_5,345,BCK,LZ_HOUSTON,,,,111865
BCK_LD1,0111,BCK_1_B1,34.5,BCK,LZ_HOUSTON,,,,111866
BCK_LD2,0114,BCK_1_B2,34.5,BCK,LZ_HOUSTON,,,,111867
BCK_LN1,0101,BCK_1_5,345,BCK,LZ_HOUSTON,BCK_RN,,,111868
...